
---------- Begin Simulation Statistics ----------
simSeconds                                   0.016012                       # Number of seconds simulated (Second)
simTicks                                  16011515750                       # Number of ticks simulated (Tick)
finalTick                                152099112000                       # Number of ticks from beginning of simulation (restored from checkpoints and never reset) (Tick)
simFreq                                  1000000000000                       # The number of ticks per simulated second ((Tick/Second))
hostSeconds                                    224.37                       # Real time elapsed on the host (Second)
hostTickRate                                 71361025                       # The number of ticks simulated per host second (ticks/s) ((Tick/Second))
hostMemory                                    4480532                       # Number of bytes of host memory used (Byte)
simInsts                                    100100002                       # Number of instructions simulated (Count)
simOps                                      183133730                       # Number of ops (including micro ops) simulated (Count)
hostInstRate                                   446131                       # Simulator instruction rate (inst/s) ((Count/Second))
hostOpRate                                     816200                       # Simulator op (including micro ops) rate (op/s) ((Count/Second))
system.clk_domain.clock                           333                       # Clock period in ticks (Tick)
system.cpu.numCycles                                0                       # Number of cpu cycles simulated (Cycle)
system.cpu.cpi                                    nan                       # CPI: cycles per instruction (core level) ((Cycle/Count))
system.cpu.ipc                                    nan                       # IPC: instructions per cycle (core level) ((Count/Cycle))
system.cpu.numWorkItemsStarted                      0                       # Number of work items this cpu started (Count)
system.cpu.numWorkItemsCompleted                    0                       # Number of work items this cpu completed (Count)
system.cpu.commitStats0.numOps                      0                       # Number of ops (including micro ops) committed (thread level) (Count)
system.cpu.commitStats0.numInstsNotNOP              0                       # Number of instructions committed excluding NOPs or prefetches (Count)
system.cpu.commitStats0.numOpsNotNOP                0                       # Number of Ops (including micro ops) Simulated (Count)
system.cpu.commitStats0.cpi                       nan                       # CPI: cycles per instruction (thread level) ((Cycle/Count))
system.cpu.commitStats0.ipc                       nan                       # IPC: instructions per cycle (thread level) ((Count/Cycle))
system.cpu.commitStats0.numMemRefs                  0                       # Number of memory references committed (Count)
system.cpu.commitStats0.numFpInsts                  0                       # Number of float instructions (Count)
system.cpu.commitStats0.numIntInsts                 0                       # Number of integer instructions (Count)
system.cpu.commitStats0.numLoadInsts                0                       # Number of load instructions (Count)
system.cpu.commitStats0.numStoreInsts               0                       # Number of store instructions (Count)
system.cpu.commitStats0.numVecInsts                 0                       # Number of vector instructions (Count)
system.cpu.commitStats0.committedInstType::No_OpClass            0                       # Class of committed instruction. (Count)
system.cpu.commitStats0.committedInstType::IntAlu            0                       # Class of committed instruction. (Count)
system.cpu.commitStats0.committedInstType::IntMult            0                       # Class of committed instruction. (Count)
system.cpu.commitStats0.committedInstType::IntDiv            0                       # Class of committed instruction. (Count)
system.cpu.commitStats0.committedInstType::FloatAdd            0                       # Class of committed instruction. (Count)
system.cpu.commitStats0.committedInstType::FloatCmp            0                       # Class of committed instruction. (Count)
system.cpu.commitStats0.committedInstType::FloatCvt            0                       # Class of committed instruction. (Count)
system.cpu.commitStats0.committedInstType::FloatMult            0                       # Class of committed instruction. (Count)
system.cpu.commitStats0.committedInstType::FloatMultAcc            0                       # Class of committed instruction. (Count)
system.cpu.commitStats0.committedInstType::FloatDiv            0                       # Class of committed instruction. (Count)
system.cpu.commitStats0.committedInstType::FloatMisc            0                       # Class of committed instruction. (Count)
system.cpu.commitStats0.committedInstType::FloatSqrt            0                       # Class of committed instruction. (Count)
system.cpu.commitStats0.committedInstType::SimdAdd            0                       # Class of committed instruction. (Count)
system.cpu.commitStats0.committedInstType::SimdAddAcc            0                       # Class of committed instruction. (Count)
system.cpu.commitStats0.committedInstType::SimdAlu            0                       # Class of committed instruction. (Count)
system.cpu.commitStats0.committedInstType::SimdCmp            0                       # Class of committed instruction. (Count)
system.cpu.commitStats0.committedInstType::SimdCvt            0                       # Class of committed instruction. (Count)
system.cpu.commitStats0.committedInstType::SimdMisc            0                       # Class of committed instruction. (Count)
system.cpu.commitStats0.committedInstType::SimdMult            0                       # Class of committed instruction. (Count)
system.cpu.commitStats0.committedInstType::SimdMultAcc            0                       # Class of committed instruction. (Count)
system.cpu.commitStats0.committedInstType::SimdMatMultAcc            0                       # Class of committed instruction. (Count)
system.cpu.commitStats0.committedInstType::SimdShift            0                       # Class of committed instruction. (Count)
system.cpu.commitStats0.committedInstType::SimdShiftAcc            0                       # Class of committed instruction. (Count)
system.cpu.commitStats0.committedInstType::SimdDiv            0                       # Class of committed instruction. (Count)
system.cpu.commitStats0.committedInstType::SimdSqrt            0                       # Class of committed instruction. (Count)
system.cpu.commitStats0.committedInstType::SimdFloatAdd            0                       # Class of committed instruction. (Count)
system.cpu.commitStats0.committedInstType::SimdFloatAlu            0                       # Class of committed instruction. (Count)
system.cpu.commitStats0.committedInstType::SimdFloatCmp            0                       # Class of committed instruction. (Count)
system.cpu.commitStats0.committedInstType::SimdFloatCvt            0                       # Class of committed instruction. (Count)
system.cpu.commitStats0.committedInstType::SimdFloatDiv            0                       # Class of committed instruction. (Count)
system.cpu.commitStats0.committedInstType::SimdFloatMisc            0                       # Class of committed instruction. (Count)
system.cpu.commitStats0.committedInstType::SimdFloatMult            0                       # Class of committed instruction. (Count)
system.cpu.commitStats0.committedInstType::SimdFloatMultAcc            0                       # Class of committed instruction. (Count)
system.cpu.commitStats0.committedInstType::SimdFloatMatMultAcc            0                       # Class of committed instruction. (Count)
system.cpu.commitStats0.committedInstType::SimdFloatSqrt            0                       # Class of committed instruction. (Count)
system.cpu.commitStats0.committedInstType::SimdReduceAdd            0                       # Class of committed instruction. (Count)
system.cpu.commitStats0.committedInstType::SimdReduceAlu            0                       # Class of committed instruction. (Count)
system.cpu.commitStats0.committedInstType::SimdReduceCmp            0                       # Class of committed instruction. (Count)
system.cpu.commitStats0.committedInstType::SimdFloatReduceAdd            0                       # Class of committed instruction. (Count)
system.cpu.commitStats0.committedInstType::SimdFloatReduceCmp            0                       # Class of committed instruction. (Count)
system.cpu.commitStats0.committedInstType::SimdAes            0                       # Class of committed instruction. (Count)
system.cpu.commitStats0.committedInstType::SimdAesMix            0                       # Class of committed instruction. (Count)
system.cpu.commitStats0.committedInstType::SimdSha1Hash            0                       # Class of committed instruction. (Count)
system.cpu.commitStats0.committedInstType::SimdSha1Hash2            0                       # Class of committed instruction. (Count)
system.cpu.commitStats0.committedInstType::SimdSha256Hash            0                       # Class of committed instruction. (Count)
system.cpu.commitStats0.committedInstType::SimdSha256Hash2            0                       # Class of committed instruction. (Count)
system.cpu.commitStats0.committedInstType::SimdShaSigma2            0                       # Class of committed instruction. (Count)
system.cpu.commitStats0.committedInstType::SimdShaSigma3            0                       # Class of committed instruction. (Count)
system.cpu.commitStats0.committedInstType::SimdPredAlu            0                       # Class of committed instruction. (Count)
system.cpu.commitStats0.committedInstType::Matrix            0                       # Class of committed instruction. (Count)
system.cpu.commitStats0.committedInstType::MatrixMov            0                       # Class of committed instruction. (Count)
system.cpu.commitStats0.committedInstType::MatrixOP            0                       # Class of committed instruction. (Count)
system.cpu.commitStats0.committedInstType::MemRead            0                       # Class of committed instruction. (Count)
system.cpu.commitStats0.committedInstType::MemWrite            0                       # Class of committed instruction. (Count)
system.cpu.commitStats0.committedInstType::FloatMemRead            0                       # Class of committed instruction. (Count)
system.cpu.commitStats0.committedInstType::FloatMemWrite            0                       # Class of committed instruction. (Count)
system.cpu.commitStats0.committedInstType::IprAccess            0                       # Class of committed instruction. (Count)
system.cpu.commitStats0.committedInstType::InstPrefetch            0                       # Class of committed instruction. (Count)
system.cpu.commitStats0.committedInstType::SimdUnitStrideLoad            0                       # Class of committed instruction. (Count)
system.cpu.commitStats0.committedInstType::SimdUnitStrideStore            0                       # Class of committed instruction. (Count)
system.cpu.commitStats0.committedInstType::SimdUnitStrideMaskLoad            0                       # Class of committed instruction. (Count)
system.cpu.commitStats0.committedInstType::SimdUnitStrideMaskStore            0                       # Class of committed instruction. (Count)
system.cpu.commitStats0.committedInstType::SimdStridedLoad            0                       # Class of committed instruction. (Count)
system.cpu.commitStats0.committedInstType::SimdStridedStore            0                       # Class of committed instruction. (Count)
system.cpu.commitStats0.committedInstType::SimdIndexedLoad            0                       # Class of committed instruction. (Count)
system.cpu.commitStats0.committedInstType::SimdIndexedStore            0                       # Class of committed instruction. (Count)
system.cpu.commitStats0.committedInstType::SimdWholeRegisterLoad            0                       # Class of committed instruction. (Count)
system.cpu.commitStats0.committedInstType::SimdWholeRegisterStore            0                       # Class of committed instruction. (Count)
system.cpu.commitStats0.committedInstType::SimdUnitStrideFaultOnlyFirstLoad            0                       # Class of committed instruction. (Count)
system.cpu.commitStats0.committedInstType::SimdUnitStrideSegmentedLoad            0                       # Class of committed instruction. (Count)
system.cpu.commitStats0.committedInstType::SimdUnitStrideSegmentedStore            0                       # Class of committed instruction. (Count)
system.cpu.commitStats0.committedInstType::SimdExt            0                       # Class of committed instruction. (Count)
system.cpu.commitStats0.committedInstType::SimdFloatExt            0                       # Class of committed instruction. (Count)
system.cpu.commitStats0.committedInstType::SimdConfig            0                       # Class of committed instruction. (Count)
system.cpu.commitStats0.committedInstType::total            0                       # Class of committed instruction. (Count)
system.cpu.dcache.demandHits::switch_cpus_1.data     17572874                       # number of demand (read+write) hits (Count)
system.cpu.dcache.demandHits::total          17572874                       # number of demand (read+write) hits (Count)
system.cpu.dcache.overallHits::switch_cpus_1.data     17572874                       # number of overall hits (Count)
system.cpu.dcache.overallHits::total         17572874                       # number of overall hits (Count)
system.cpu.dcache.demandMisses::switch_cpus_1.data         4331                       # number of demand (read+write) misses (Count)
system.cpu.dcache.demandMisses::total            4331                       # number of demand (read+write) misses (Count)
system.cpu.dcache.overallMisses::switch_cpus_1.data         4331                       # number of overall misses (Count)
system.cpu.dcache.overallMisses::total           4331                       # number of overall misses (Count)
system.cpu.dcache.demandMissLatency::switch_cpus_1.data    180678500                       # number of demand (read+write) miss ticks (Tick)
system.cpu.dcache.demandMissLatency::total    180678500                       # number of demand (read+write) miss ticks (Tick)
system.cpu.dcache.overallMissLatency::switch_cpus_1.data    180678500                       # number of overall miss ticks (Tick)
system.cpu.dcache.overallMissLatency::total    180678500                       # number of overall miss ticks (Tick)
system.cpu.dcache.demandAccesses::switch_cpus_1.data     17577205                       # number of demand (read+write) accesses (Count)
system.cpu.dcache.demandAccesses::total      17577205                       # number of demand (read+write) accesses (Count)
system.cpu.dcache.overallAccesses::switch_cpus_1.data     17577205                       # number of overall (read+write) accesses (Count)
system.cpu.dcache.overallAccesses::total     17577205                       # number of overall (read+write) accesses (Count)
system.cpu.dcache.demandMissRate::switch_cpus_1.data     0.000246                       # miss rate for demand accesses (Ratio)
system.cpu.dcache.demandMissRate::total      0.000246                       # miss rate for demand accesses (Ratio)
system.cpu.dcache.overallMissRate::switch_cpus_1.data     0.000246                       # miss rate for overall accesses (Ratio)
system.cpu.dcache.overallMissRate::total     0.000246                       # miss rate for overall accesses (Ratio)
system.cpu.dcache.demandAvgMissLatency::switch_cpus_1.data 41717.501732                       # average overall miss latency in ticks ((Tick/Count))
system.cpu.dcache.demandAvgMissLatency::total 41717.501732                       # average overall miss latency in ticks ((Tick/Count))
system.cpu.dcache.overallAvgMissLatency::switch_cpus_1.data 41717.501732                       # average overall miss latency ((Tick/Count))
system.cpu.dcache.overallAvgMissLatency::total 41717.501732                       # average overall miss latency ((Tick/Count))
system.cpu.dcache.blockedCycles::no_mshrs            0                       # number of cycles access was blocked (Cycle)
system.cpu.dcache.blockedCycles::no_targets            0                       # number of cycles access was blocked (Cycle)
system.cpu.dcache.blockedCauses::no_mshrs            0                       # number of times access was blocked (Count)
system.cpu.dcache.blockedCauses::no_targets            0                       # number of times access was blocked (Count)
system.cpu.dcache.avgBlocked::no_mshrs            nan                       # average number of cycles each access was blocked ((Cycle/Count))
system.cpu.dcache.avgBlocked::no_targets          nan                       # average number of cycles each access was blocked ((Cycle/Count))
system.cpu.dcache.writebacks::writebacks         3293                       # number of writebacks (Count)
system.cpu.dcache.writebacks::total              3293                       # number of writebacks (Count)
system.cpu.dcache.demandMshrHits::switch_cpus_1.data          443                       # number of demand (read+write) MSHR hits (Count)
system.cpu.dcache.demandMshrHits::total           443                       # number of demand (read+write) MSHR hits (Count)
system.cpu.dcache.overallMshrHits::switch_cpus_1.data          443                       # number of overall MSHR hits (Count)
system.cpu.dcache.overallMshrHits::total          443                       # number of overall MSHR hits (Count)
system.cpu.dcache.demandMshrMisses::switch_cpus_1.data         3888                       # number of demand (read+write) MSHR misses (Count)
system.cpu.dcache.demandMshrMisses::total         3888                       # number of demand (read+write) MSHR misses (Count)
system.cpu.dcache.overallMshrMisses::switch_cpus_1.data         3888                       # number of overall MSHR misses (Count)
system.cpu.dcache.overallMshrMisses::total         3888                       # number of overall MSHR misses (Count)
system.cpu.dcache.demandMshrMissLatency::switch_cpus_1.data    170039000                       # number of demand (read+write) MSHR miss ticks (Tick)
system.cpu.dcache.demandMshrMissLatency::total    170039000                       # number of demand (read+write) MSHR miss ticks (Tick)
system.cpu.dcache.overallMshrMissLatency::switch_cpus_1.data    170039000                       # number of overall MSHR miss ticks (Tick)
system.cpu.dcache.overallMshrMissLatency::total    170039000                       # number of overall MSHR miss ticks (Tick)
system.cpu.dcache.demandMshrMissRate::switch_cpus_1.data     0.000221                       # mshr miss ratio for demand accesses (Ratio)
system.cpu.dcache.demandMshrMissRate::total     0.000221                       # mshr miss ratio for demand accesses (Ratio)
system.cpu.dcache.overallMshrMissRate::switch_cpus_1.data     0.000221                       # mshr miss ratio for overall accesses (Ratio)
system.cpu.dcache.overallMshrMissRate::total     0.000221                       # mshr miss ratio for overall accesses (Ratio)
system.cpu.dcache.demandAvgMshrMissLatency::switch_cpus_1.data 43734.310700                       # average overall mshr miss latency ((Tick/Count))
system.cpu.dcache.demandAvgMshrMissLatency::total 43734.310700                       # average overall mshr miss latency ((Tick/Count))
system.cpu.dcache.overallAvgMshrMissLatency::switch_cpus_1.data 43734.310700                       # average overall mshr miss latency ((Tick/Count))
system.cpu.dcache.overallAvgMshrMissLatency::total 43734.310700                       # average overall mshr miss latency ((Tick/Count))
system.cpu.dcache.replacements                   3888                       # number of replacements (Count)
system.cpu.dcache.ReadReq.hits::switch_cpus_1.data      8725876                       # number of ReadReq hits (Count)
system.cpu.dcache.ReadReq.hits::total         8725876                       # number of ReadReq hits (Count)
system.cpu.dcache.ReadReq.misses::switch_cpus_1.data         1497                       # number of ReadReq misses (Count)
system.cpu.dcache.ReadReq.misses::total          1497                       # number of ReadReq misses (Count)
system.cpu.dcache.ReadReq.missLatency::switch_cpus_1.data     16407500                       # number of ReadReq miss ticks (Tick)
system.cpu.dcache.ReadReq.missLatency::total     16407500                       # number of ReadReq miss ticks (Tick)
system.cpu.dcache.ReadReq.accesses::switch_cpus_1.data      8727373                       # number of ReadReq accesses(hits+misses) (Count)
system.cpu.dcache.ReadReq.accesses::total      8727373                       # number of ReadReq accesses(hits+misses) (Count)
system.cpu.dcache.ReadReq.missRate::switch_cpus_1.data     0.000172                       # miss rate for ReadReq accesses (Ratio)
system.cpu.dcache.ReadReq.missRate::total     0.000172                       # miss rate for ReadReq accesses (Ratio)
system.cpu.dcache.ReadReq.avgMissLatency::switch_cpus_1.data 10960.253841                       # average ReadReq miss latency ((Tick/Count))
system.cpu.dcache.ReadReq.avgMissLatency::total 10960.253841                       # average ReadReq miss latency ((Tick/Count))
system.cpu.dcache.ReadReq.mshrHits::switch_cpus_1.data          443                       # number of ReadReq MSHR hits (Count)
system.cpu.dcache.ReadReq.mshrHits::total          443                       # number of ReadReq MSHR hits (Count)
system.cpu.dcache.ReadReq.mshrMisses::switch_cpus_1.data         1054                       # number of ReadReq MSHR misses (Count)
system.cpu.dcache.ReadReq.mshrMisses::total         1054                       # number of ReadReq MSHR misses (Count)
system.cpu.dcache.ReadReq.mshrMissLatency::switch_cpus_1.data     10019000                       # number of ReadReq MSHR miss ticks (Tick)
system.cpu.dcache.ReadReq.mshrMissLatency::total     10019000                       # number of ReadReq MSHR miss ticks (Tick)
system.cpu.dcache.ReadReq.mshrMissRate::switch_cpus_1.data     0.000121                       # mshr miss rate for ReadReq accesses (Ratio)
system.cpu.dcache.ReadReq.mshrMissRate::total     0.000121                       # mshr miss rate for ReadReq accesses (Ratio)
system.cpu.dcache.ReadReq.avgMshrMissLatency::switch_cpus_1.data  9505.692600                       # average ReadReq mshr miss latency ((Tick/Count))
system.cpu.dcache.ReadReq.avgMshrMissLatency::total  9505.692600                       # average ReadReq mshr miss latency ((Tick/Count))
system.cpu.dcache.WriteReq.hits::switch_cpus_1.data      8846998                       # number of WriteReq hits (Count)
system.cpu.dcache.WriteReq.hits::total        8846998                       # number of WriteReq hits (Count)
system.cpu.dcache.WriteReq.misses::switch_cpus_1.data         2834                       # number of WriteReq misses (Count)
system.cpu.dcache.WriteReq.misses::total         2834                       # number of WriteReq misses (Count)
system.cpu.dcache.WriteReq.missLatency::switch_cpus_1.data    164271000                       # number of WriteReq miss ticks (Tick)
system.cpu.dcache.WriteReq.missLatency::total    164271000                       # number of WriteReq miss ticks (Tick)
system.cpu.dcache.WriteReq.accesses::switch_cpus_1.data      8849832                       # number of WriteReq accesses(hits+misses) (Count)
system.cpu.dcache.WriteReq.accesses::total      8849832                       # number of WriteReq accesses(hits+misses) (Count)
system.cpu.dcache.WriteReq.missRate::switch_cpus_1.data     0.000320                       # miss rate for WriteReq accesses (Ratio)
system.cpu.dcache.WriteReq.missRate::total     0.000320                       # miss rate for WriteReq accesses (Ratio)
system.cpu.dcache.WriteReq.avgMissLatency::switch_cpus_1.data 57964.361327                       # average WriteReq miss latency ((Tick/Count))
system.cpu.dcache.WriteReq.avgMissLatency::total 57964.361327                       # average WriteReq miss latency ((Tick/Count))
system.cpu.dcache.WriteReq.mshrMisses::switch_cpus_1.data         2834                       # number of WriteReq MSHR misses (Count)
system.cpu.dcache.WriteReq.mshrMisses::total         2834                       # number of WriteReq MSHR misses (Count)
system.cpu.dcache.WriteReq.mshrMissLatency::switch_cpus_1.data    160020000                       # number of WriteReq MSHR miss ticks (Tick)
system.cpu.dcache.WriteReq.mshrMissLatency::total    160020000                       # number of WriteReq MSHR miss ticks (Tick)
system.cpu.dcache.WriteReq.mshrMissRate::switch_cpus_1.data     0.000320                       # mshr miss rate for WriteReq accesses (Ratio)
system.cpu.dcache.WriteReq.mshrMissRate::total     0.000320                       # mshr miss rate for WriteReq accesses (Ratio)
system.cpu.dcache.WriteReq.avgMshrMissLatency::switch_cpus_1.data 56464.361327                       # average WriteReq mshr miss latency ((Tick/Count))
system.cpu.dcache.WriteReq.avgMshrMissLatency::total 56464.361327                       # average WriteReq mshr miss latency ((Tick/Count))
system.cpu.dcache.power_state.pwrStateResidencyTicks::UNDEFINED 152099112000                       # Cumulative time (in ticks) in various power states (Tick)
system.cpu.dcache.tags.tagsInUse                  512                       # Average ticks per tags in use ((Tick/Count))
system.cpu.dcache.tags.totalRefs             29860279                       # Total number of references to valid blocks. (Count)
system.cpu.dcache.tags.sampledRefs               4400                       # Sample count of references to valid blocks. (Count)
system.cpu.dcache.tags.avgRefs            6786.427045                       # Average number of references to valid blocks. ((Count/Count))
system.cpu.dcache.tags.warmupTick                   0                       # The tick when the warmup percentage was hit. (Tick)
system.cpu.dcache.tags.occupancies::switch_cpus.data   166.498397                       # Average occupied blocks per tick, per requestor ((Count/Tick))
system.cpu.dcache.tags.occupancies::switch_cpus_1.data   345.501603                       # Average occupied blocks per tick, per requestor ((Count/Tick))
system.cpu.dcache.tags.avgOccs::switch_cpus.data     0.325192                       # Average percentage of cache occupancy ((Ratio/Tick))
system.cpu.dcache.tags.avgOccs::switch_cpus_1.data     0.674808                       # Average percentage of cache occupancy ((Ratio/Tick))
system.cpu.dcache.tags.avgOccs::total               1                       # Average percentage of cache occupancy ((Ratio/Tick))
system.cpu.dcache.tags.occupanciesTaskId::1024          512                       # Occupied blocks per task id (Count)
system.cpu.dcache.tags.ageTaskId_1024::0            1                       # Occupied blocks per task id, per block age (Count)
system.cpu.dcache.tags.ageTaskId_1024::1           12                       # Occupied blocks per task id, per block age (Count)
system.cpu.dcache.tags.ageTaskId_1024::2          140                       # Occupied blocks per task id, per block age (Count)
system.cpu.dcache.tags.ageTaskId_1024::3          244                       # Occupied blocks per task id, per block age (Count)
system.cpu.dcache.tags.ageTaskId_1024::4          115                       # Occupied blocks per task id, per block age (Count)
system.cpu.dcache.tags.ratioOccsTaskId::1024            1                       # Ratio of occupied blocks and all blocks, per task id (Ratio)
system.cpu.dcache.tags.tagAccesses           35158298                       # Number of tag accesses (Count)
system.cpu.dcache.tags.dataAccesses          35158298                       # Number of data accesses (Count)
system.cpu.dcache.tags.power_state.pwrStateResidencyTicks::UNDEFINED 152099112000                       # Cumulative time (in ticks) in various power states (Tick)
system.cpu.dtb_walker_cache.blockedCycles::no_mshrs            0                       # number of cycles access was blocked (Cycle)
system.cpu.dtb_walker_cache.blockedCycles::no_targets            0                       # number of cycles access was blocked (Cycle)
system.cpu.dtb_walker_cache.blockedCauses::no_mshrs            0                       # number of times access was blocked (Count)
system.cpu.dtb_walker_cache.blockedCauses::no_targets            0                       # number of times access was blocked (Count)
system.cpu.dtb_walker_cache.avgBlocked::no_mshrs          nan                       # average number of cycles each access was blocked ((Cycle/Count))
system.cpu.dtb_walker_cache.avgBlocked::no_targets          nan                       # average number of cycles each access was blocked ((Cycle/Count))
system.cpu.dtb_walker_cache.replacements            0                       # number of replacements (Count)
system.cpu.dtb_walker_cache.power_state.pwrStateResidencyTicks::UNDEFINED 152099112000                       # Cumulative time (in ticks) in various power states (Tick)
system.cpu.dtb_walker_cache.tags.tagsInUse            0                       # Average ticks per tags in use ((Tick/Count))
system.cpu.dtb_walker_cache.tags.totalRefs            0                       # Total number of references to valid blocks. (Count)
system.cpu.dtb_walker_cache.tags.sampledRefs            0                       # Sample count of references to valid blocks. (Count)
system.cpu.dtb_walker_cache.tags.avgRefs          nan                       # Average number of references to valid blocks. ((Count/Count))
system.cpu.dtb_walker_cache.tags.warmupTick            0                       # The tick when the warmup percentage was hit. (Tick)
system.cpu.dtb_walker_cache.tags.tagAccesses            0                       # Number of tag accesses (Count)
system.cpu.dtb_walker_cache.tags.dataAccesses            0                       # Number of data accesses (Count)
system.cpu.dtb_walker_cache.tags.power_state.pwrStateResidencyTicks::UNDEFINED 152099112000                       # Cumulative time (in ticks) in various power states (Tick)
system.cpu.exec_context.thread_0.numMatAluAccesses            0                       # Number of matrix alu accesses (Count)
system.cpu.exec_context.thread_0.numCallsReturns            0                       # Number of times a function call or return occured (Count)
system.cpu.exec_context.thread_0.numMatInsts            0                       # Number of matrix instructions (Count)
system.cpu.exec_context.thread_0.numIdleCycles            0                       # Number of idle cycles (Cycle)
system.cpu.exec_context.thread_0.numBusyCycles            0                       # Number of busy cycles (Cycle)
system.cpu.exec_context.thread_0.notIdleFraction            1                       # Percentage of non-idle cycles (Ratio)
system.cpu.exec_context.thread_0.idleFraction            0                       # Percentage of idle cycles (Ratio)
system.cpu.executeStats0.numInsts                   0                       # Number of executed instructions (Count)
system.cpu.executeStats0.numNop                     0                       # Number of nop insts executed (Count)
system.cpu.executeStats0.numBranches                0                       # Number of branches executed (Count)
system.cpu.executeStats0.numLoadInsts               0                       # Number of load instructions executed (Count)
system.cpu.executeStats0.numStoreInsts              0                       # Number of stores executed (Count)
system.cpu.executeStats0.instRate                 nan                       # Inst execution rate ((Count/Cycle))
system.cpu.executeStats0.numFpRegWrites             0                       # Number of times the floating registers were written (Count)
system.cpu.executeStats0.numMemRefs                 0                       # Number of memory refs (Count)
system.cpu.executeStats0.numVecAluAccesses            0                       # Number of vector alu accesses (Count)
system.cpu.executeStats0.numDiscardedOps            0                       # Number of ops (including micro ops) which were discarded before commit (Count)
system.cpu.fetchStats0.numInsts                     0                       # Number of instructions fetched (thread level) (Count)
system.cpu.fetchStats0.numOps                       0                       # Number of ops (including micro ops) fetched (thread level) (Count)
system.cpu.fetchStats0.fetchRate                  nan                       # Number of inst fetches per cycle ((Count/Cycle))
system.cpu.fetchStats0.branchRate                 nan                       # Number of branch fetches per cycle (Ratio)
system.cpu.fetchStats0.numFetchSuspends             0                       # Number of times Execute suspended instruction fetching (Count)
system.cpu.icache.demandHits::switch_cpus_1.inst      7655318                       # number of demand (read+write) hits (Count)
system.cpu.icache.demandHits::total           7655318                       # number of demand (read+write) hits (Count)
system.cpu.icache.overallHits::switch_cpus_1.inst      7655318                       # number of overall hits (Count)
system.cpu.icache.overallHits::total          7655318                       # number of overall hits (Count)
system.cpu.icache.demandMisses::switch_cpus_1.inst        10983                       # number of demand (read+write) misses (Count)
system.cpu.icache.demandMisses::total           10983                       # number of demand (read+write) misses (Count)
system.cpu.icache.overallMisses::switch_cpus_1.inst        10983                       # number of overall misses (Count)
system.cpu.icache.overallMisses::total          10983                       # number of overall misses (Count)
system.cpu.icache.demandMissLatency::switch_cpus_1.inst     99870500                       # number of demand (read+write) miss ticks (Tick)
system.cpu.icache.demandMissLatency::total     99870500                       # number of demand (read+write) miss ticks (Tick)
system.cpu.icache.overallMissLatency::switch_cpus_1.inst     99870500                       # number of overall miss ticks (Tick)
system.cpu.icache.overallMissLatency::total     99870500                       # number of overall miss ticks (Tick)
system.cpu.icache.demandAccesses::switch_cpus_1.inst      7666301                       # number of demand (read+write) accesses (Count)
system.cpu.icache.demandAccesses::total       7666301                       # number of demand (read+write) accesses (Count)
system.cpu.icache.overallAccesses::switch_cpus_1.inst      7666301                       # number of overall (read+write) accesses (Count)
system.cpu.icache.overallAccesses::total      7666301                       # number of overall (read+write) accesses (Count)
system.cpu.icache.demandMissRate::switch_cpus_1.inst     0.001433                       # miss rate for demand accesses (Ratio)
system.cpu.icache.demandMissRate::total      0.001433                       # miss rate for demand accesses (Ratio)
system.cpu.icache.overallMissRate::switch_cpus_1.inst     0.001433                       # miss rate for overall accesses (Ratio)
system.cpu.icache.overallMissRate::total     0.001433                       # miss rate for overall accesses (Ratio)
system.cpu.icache.demandAvgMissLatency::switch_cpus_1.inst  9093.189475                       # average overall miss latency in ticks ((Tick/Count))
system.cpu.icache.demandAvgMissLatency::total  9093.189475                       # average overall miss latency in ticks ((Tick/Count))
system.cpu.icache.overallAvgMissLatency::switch_cpus_1.inst  9093.189475                       # average overall miss latency ((Tick/Count))
system.cpu.icache.overallAvgMissLatency::total  9093.189475                       # average overall miss latency ((Tick/Count))
system.cpu.icache.blockedCycles::no_mshrs            0                       # number of cycles access was blocked (Cycle)
system.cpu.icache.blockedCycles::no_targets            0                       # number of cycles access was blocked (Cycle)
system.cpu.icache.blockedCauses::no_mshrs            0                       # number of times access was blocked (Count)
system.cpu.icache.blockedCauses::no_targets            0                       # number of times access was blocked (Count)
system.cpu.icache.avgBlocked::no_mshrs            nan                       # average number of cycles each access was blocked ((Cycle/Count))
system.cpu.icache.avgBlocked::no_targets          nan                       # average number of cycles each access was blocked ((Cycle/Count))
system.cpu.icache.writebacks::writebacks        10968                       # number of writebacks (Count)
system.cpu.icache.writebacks::total             10968                       # number of writebacks (Count)
system.cpu.icache.demandMshrHits::switch_cpus_1.inst           15                       # number of demand (read+write) MSHR hits (Count)
system.cpu.icache.demandMshrHits::total            15                       # number of demand (read+write) MSHR hits (Count)
system.cpu.icache.overallMshrHits::switch_cpus_1.inst           15                       # number of overall MSHR hits (Count)
system.cpu.icache.overallMshrHits::total           15                       # number of overall MSHR hits (Count)
system.cpu.icache.demandMshrMisses::switch_cpus_1.inst        10968                       # number of demand (read+write) MSHR misses (Count)
system.cpu.icache.demandMshrMisses::total        10968                       # number of demand (read+write) MSHR misses (Count)
system.cpu.icache.overallMshrMisses::switch_cpus_1.inst        10968                       # number of overall MSHR misses (Count)
system.cpu.icache.overallMshrMisses::total        10968                       # number of overall MSHR misses (Count)
system.cpu.icache.demandMshrMissLatency::switch_cpus_1.inst     82274000                       # number of demand (read+write) MSHR miss ticks (Tick)
system.cpu.icache.demandMshrMissLatency::total     82274000                       # number of demand (read+write) MSHR miss ticks (Tick)
system.cpu.icache.overallMshrMissLatency::switch_cpus_1.inst     82274000                       # number of overall MSHR miss ticks (Tick)
system.cpu.icache.overallMshrMissLatency::total     82274000                       # number of overall MSHR miss ticks (Tick)
system.cpu.icache.demandMshrMissRate::switch_cpus_1.inst     0.001431                       # mshr miss ratio for demand accesses (Ratio)
system.cpu.icache.demandMshrMissRate::total     0.001431                       # mshr miss ratio for demand accesses (Ratio)
system.cpu.icache.overallMshrMissRate::switch_cpus_1.inst     0.001431                       # mshr miss ratio for overall accesses (Ratio)
system.cpu.icache.overallMshrMissRate::total     0.001431                       # mshr miss ratio for overall accesses (Ratio)
system.cpu.icache.demandAvgMshrMissLatency::switch_cpus_1.inst  7501.276441                       # average overall mshr miss latency ((Tick/Count))
system.cpu.icache.demandAvgMshrMissLatency::total  7501.276441                       # average overall mshr miss latency ((Tick/Count))
system.cpu.icache.overallAvgMshrMissLatency::switch_cpus_1.inst  7501.276441                       # average overall mshr miss latency ((Tick/Count))
system.cpu.icache.overallAvgMshrMissLatency::total  7501.276441                       # average overall mshr miss latency ((Tick/Count))
system.cpu.icache.replacements                  10968                       # number of replacements (Count)
system.cpu.icache.ReadReq.hits::switch_cpus_1.inst      7655318                       # number of ReadReq hits (Count)
system.cpu.icache.ReadReq.hits::total         7655318                       # number of ReadReq hits (Count)
system.cpu.icache.ReadReq.misses::switch_cpus_1.inst        10983                       # number of ReadReq misses (Count)
system.cpu.icache.ReadReq.misses::total         10983                       # number of ReadReq misses (Count)
system.cpu.icache.ReadReq.missLatency::switch_cpus_1.inst     99870500                       # number of ReadReq miss ticks (Tick)
system.cpu.icache.ReadReq.missLatency::total     99870500                       # number of ReadReq miss ticks (Tick)
system.cpu.icache.ReadReq.accesses::switch_cpus_1.inst      7666301                       # number of ReadReq accesses(hits+misses) (Count)
system.cpu.icache.ReadReq.accesses::total      7666301                       # number of ReadReq accesses(hits+misses) (Count)
system.cpu.icache.ReadReq.missRate::switch_cpus_1.inst     0.001433                       # miss rate for ReadReq accesses (Ratio)
system.cpu.icache.ReadReq.missRate::total     0.001433                       # miss rate for ReadReq accesses (Ratio)
system.cpu.icache.ReadReq.avgMissLatency::switch_cpus_1.inst  9093.189475                       # average ReadReq miss latency ((Tick/Count))
system.cpu.icache.ReadReq.avgMissLatency::total  9093.189475                       # average ReadReq miss latency ((Tick/Count))
system.cpu.icache.ReadReq.mshrHits::switch_cpus_1.inst           15                       # number of ReadReq MSHR hits (Count)
system.cpu.icache.ReadReq.mshrHits::total           15                       # number of ReadReq MSHR hits (Count)
system.cpu.icache.ReadReq.mshrMisses::switch_cpus_1.inst        10968                       # number of ReadReq MSHR misses (Count)
system.cpu.icache.ReadReq.mshrMisses::total        10968                       # number of ReadReq MSHR misses (Count)
system.cpu.icache.ReadReq.mshrMissLatency::switch_cpus_1.inst     82274000                       # number of ReadReq MSHR miss ticks (Tick)
system.cpu.icache.ReadReq.mshrMissLatency::total     82274000                       # number of ReadReq MSHR miss ticks (Tick)
system.cpu.icache.ReadReq.mshrMissRate::switch_cpus_1.inst     0.001431                       # mshr miss rate for ReadReq accesses (Ratio)
system.cpu.icache.ReadReq.mshrMissRate::total     0.001431                       # mshr miss rate for ReadReq accesses (Ratio)
system.cpu.icache.ReadReq.avgMshrMissLatency::switch_cpus_1.inst  7501.276441                       # average ReadReq mshr miss latency ((Tick/Count))
system.cpu.icache.ReadReq.avgMshrMissLatency::total  7501.276441                       # average ReadReq mshr miss latency ((Tick/Count))
system.cpu.icache.power_state.pwrStateResidencyTicks::UNDEFINED 152099112000                       # Cumulative time (in ticks) in various power states (Tick)
system.cpu.icache.tags.tagsInUse                  512                       # Average ticks per tags in use ((Tick/Count))
system.cpu.icache.tags.totalRefs             62153526                       # Total number of references to valid blocks. (Count)
system.cpu.icache.tags.sampledRefs              11480                       # Sample count of references to valid blocks. (Count)
system.cpu.icache.tags.avgRefs            5414.070209                       # Average number of references to valid blocks. ((Count/Count))
system.cpu.icache.tags.warmupTick                   0                       # The tick when the warmup percentage was hit. (Tick)
system.cpu.icache.tags.occupancies::cpu.inst    11.159170                       # Average occupied blocks per tick, per requestor ((Count/Tick))
system.cpu.icache.tags.occupancies::switch_cpus.inst   422.672796                       # Average occupied blocks per tick, per requestor ((Count/Tick))
system.cpu.icache.tags.occupancies::switch_cpus_1.inst    78.168034                       # Average occupied blocks per tick, per requestor ((Count/Tick))
system.cpu.icache.tags.avgOccs::cpu.inst     0.021795                       # Average percentage of cache occupancy ((Ratio/Tick))
system.cpu.icache.tags.avgOccs::switch_cpus.inst     0.825533                       # Average percentage of cache occupancy ((Ratio/Tick))
system.cpu.icache.tags.avgOccs::switch_cpus_1.inst     0.152672                       # Average percentage of cache occupancy ((Ratio/Tick))
system.cpu.icache.tags.avgOccs::total               1                       # Average percentage of cache occupancy ((Ratio/Tick))
system.cpu.icache.tags.occupanciesTaskId::1024          512                       # Occupied blocks per task id (Count)
system.cpu.icache.tags.ageTaskId_1024::0            2                       # Occupied blocks per task id, per block age (Count)
system.cpu.icache.tags.ageTaskId_1024::2            1                       # Occupied blocks per task id, per block age (Count)
system.cpu.icache.tags.ageTaskId_1024::3            8                       # Occupied blocks per task id, per block age (Count)
system.cpu.icache.tags.ageTaskId_1024::4          501                       # Occupied blocks per task id, per block age (Count)
system.cpu.icache.tags.ratioOccsTaskId::1024            1                       # Ratio of occupied blocks and all blocks, per task id (Ratio)
system.cpu.icache.tags.tagAccesses           15343570                       # Number of tag accesses (Count)
system.cpu.icache.tags.dataAccesses          15343570                       # Number of data accesses (Count)
system.cpu.icache.tags.power_state.pwrStateResidencyTicks::UNDEFINED 152099112000                       # Cumulative time (in ticks) in various power states (Tick)
system.cpu.interrupts.clk_domain.clock           8000                       # Clock period in ticks (Tick)
system.cpu.itb_walker_cache.blockedCycles::no_mshrs            0                       # number of cycles access was blocked (Cycle)
system.cpu.itb_walker_cache.blockedCycles::no_targets            0                       # number of cycles access was blocked (Cycle)
system.cpu.itb_walker_cache.blockedCauses::no_mshrs            0                       # number of times access was blocked (Count)
system.cpu.itb_walker_cache.blockedCauses::no_targets            0                       # number of times access was blocked (Count)
system.cpu.itb_walker_cache.avgBlocked::no_mshrs          nan                       # average number of cycles each access was blocked ((Cycle/Count))
system.cpu.itb_walker_cache.avgBlocked::no_targets          nan                       # average number of cycles each access was blocked ((Cycle/Count))
system.cpu.itb_walker_cache.replacements            0                       # number of replacements (Count)
system.cpu.itb_walker_cache.power_state.pwrStateResidencyTicks::UNDEFINED 152099112000                       # Cumulative time (in ticks) in various power states (Tick)
system.cpu.itb_walker_cache.tags.tagsInUse            0                       # Average ticks per tags in use ((Tick/Count))
system.cpu.itb_walker_cache.tags.totalRefs            0                       # Total number of references to valid blocks. (Count)
system.cpu.itb_walker_cache.tags.sampledRefs            0                       # Sample count of references to valid blocks. (Count)
system.cpu.itb_walker_cache.tags.avgRefs          nan                       # Average number of references to valid blocks. ((Count/Count))
system.cpu.itb_walker_cache.tags.warmupTick            0                       # The tick when the warmup percentage was hit. (Tick)
system.cpu.itb_walker_cache.tags.tagAccesses            0                       # Number of tag accesses (Count)
system.cpu.itb_walker_cache.tags.dataAccesses            0                       # Number of data accesses (Count)
system.cpu.itb_walker_cache.tags.power_state.pwrStateResidencyTicks::UNDEFINED 152099112000                       # Cumulative time (in ticks) in various power states (Tick)
system.cpu.mmu.dtb.rdAccesses                       0                       # TLB accesses on read requests (Count)
system.cpu.mmu.dtb.wrAccesses                       0                       # TLB accesses on write requests (Count)
system.cpu.mmu.dtb.rdMisses                         0                       # TLB misses on read requests (Count)
system.cpu.mmu.dtb.wrMisses                         0                       # TLB misses on write requests (Count)
system.cpu.mmu.dtb.walker.power_state.pwrStateResidencyTicks::UNDEFINED 152099112000                       # Cumulative time (in ticks) in various power states (Tick)
system.cpu.mmu.itb.rdAccesses                       0                       # TLB accesses on read requests (Count)
system.cpu.mmu.itb.wrAccesses                       0                       # TLB accesses on write requests (Count)
system.cpu.mmu.itb.rdMisses                         0                       # TLB misses on read requests (Count)
system.cpu.mmu.itb.wrMisses                         0                       # TLB misses on write requests (Count)
system.cpu.mmu.itb.walker.power_state.pwrStateResidencyTicks::UNDEFINED 152099112000                       # Cumulative time (in ticks) in various power states (Tick)
system.cpu.power_state.pwrStateResidencyTicks::OFF 151981552500                       # Cumulative time (in ticks) in various power states (Tick)
system.cpu.thread_0.numInsts                        0                       # Number of Instructions committed (Count)
system.cpu.thread_0.numOps                          0                       # Number of Ops committed (Count)
system.cpu.thread_0.numMemRefs                      0                       # Number of Memory References (Count)
system.cpu.workload.numSyscalls                    23                       # Number of system calls (Count)
system.cpu_clk_domain.clock                       500                       # Clock period in ticks (Tick)
system.cpu_voltage_domain.voltage                   1                       # Voltage in Volts (Volt)
system.l2.demandHits::switch_cpus_1.inst        10894                       # number of demand (read+write) hits (Count)
system.l2.demandHits::switch_cpus_1.data         1657                       # number of demand (read+write) hits (Count)
system.l2.demandHits::total                     12551                       # number of demand (read+write) hits (Count)
system.l2.overallHits::switch_cpus_1.inst        10894                       # number of overall hits (Count)
system.l2.overallHits::switch_cpus_1.data         1657                       # number of overall hits (Count)
system.l2.overallHits::total                    12551                       # number of overall hits (Count)
system.l2.demandMisses::switch_cpus_1.inst           74                       # number of demand (read+write) misses (Count)
system.l2.demandMisses::switch_cpus_1.data         2231                       # number of demand (read+write) misses (Count)
system.l2.demandMisses::total                    2305                       # number of demand (read+write) misses (Count)
system.l2.overallMisses::switch_cpus_1.inst           74                       # number of overall misses (Count)
system.l2.overallMisses::switch_cpus_1.data         2231                       # number of overall misses (Count)
system.l2.overallMisses::total                   2305                       # number of overall misses (Count)
system.l2.demandMissLatency::switch_cpus_1.inst      5860000                       # number of demand (read+write) miss ticks (Tick)
system.l2.demandMissLatency::switch_cpus_1.data    153049000                       # number of demand (read+write) miss ticks (Tick)
system.l2.demandMissLatency::total          158909000                       # number of demand (read+write) miss ticks (Tick)
system.l2.overallMissLatency::switch_cpus_1.inst      5860000                       # number of overall miss ticks (Tick)
system.l2.overallMissLatency::switch_cpus_1.data    153049000                       # number of overall miss ticks (Tick)
system.l2.overallMissLatency::total         158909000                       # number of overall miss ticks (Tick)
system.l2.demandAccesses::switch_cpus_1.inst        10968                       # number of demand (read+write) accesses (Count)
system.l2.demandAccesses::switch_cpus_1.data         3888                       # number of demand (read+write) accesses (Count)
system.l2.demandAccesses::total                 14856                       # number of demand (read+write) accesses (Count)
system.l2.overallAccesses::switch_cpus_1.inst        10968                       # number of overall (read+write) accesses (Count)
system.l2.overallAccesses::switch_cpus_1.data         3888                       # number of overall (read+write) accesses (Count)
system.l2.overallAccesses::total                14856                       # number of overall (read+write) accesses (Count)
system.l2.demandMissRate::switch_cpus_1.inst     0.006747                       # miss rate for demand accesses (Ratio)
system.l2.demandMissRate::switch_cpus_1.data     0.573817                       # miss rate for demand accesses (Ratio)
system.l2.demandMissRate::total              0.155156                       # miss rate for demand accesses (Ratio)
system.l2.overallMissRate::switch_cpus_1.inst     0.006747                       # miss rate for overall accesses (Ratio)
system.l2.overallMissRate::switch_cpus_1.data     0.573817                       # miss rate for overall accesses (Ratio)
system.l2.overallMissRate::total             0.155156                       # miss rate for overall accesses (Ratio)
system.l2.demandAvgMissLatency::switch_cpus_1.inst 79189.189189                       # average overall miss latency in ticks ((Tick/Count))
system.l2.demandAvgMissLatency::switch_cpus_1.data 68601.075751                       # average overall miss latency in ticks ((Tick/Count))
system.l2.demandAvgMissLatency::total    68940.997831                       # average overall miss latency in ticks ((Tick/Count))
system.l2.overallAvgMissLatency::switch_cpus_1.inst 79189.189189                       # average overall miss latency ((Tick/Count))
system.l2.overallAvgMissLatency::switch_cpus_1.data 68601.075751                       # average overall miss latency ((Tick/Count))
system.l2.overallAvgMissLatency::total   68940.997831                       # average overall miss latency ((Tick/Count))
system.l2.blockedCycles::no_mshrs                   0                       # number of cycles access was blocked (Cycle)
system.l2.blockedCycles::no_targets                 0                       # number of cycles access was blocked (Cycle)
system.l2.blockedCauses::no_mshrs                   0                       # number of times access was blocked (Count)
system.l2.blockedCauses::no_targets                 0                       # number of times access was blocked (Count)
system.l2.avgBlocked::no_mshrs                    nan                       # average number of cycles each access was blocked ((Cycle/Count))
system.l2.avgBlocked::no_targets                  nan                       # average number of cycles each access was blocked ((Cycle/Count))
system.l2.writebacks::writebacks                 2145                       # number of writebacks (Count)
system.l2.writebacks::total                      2145                       # number of writebacks (Count)
system.l2.demandMshrMisses::switch_cpus_1.inst           74                       # number of demand (read+write) MSHR misses (Count)
system.l2.demandMshrMisses::switch_cpus_1.data         2231                       # number of demand (read+write) MSHR misses (Count)
system.l2.demandMshrMisses::total                2305                       # number of demand (read+write) MSHR misses (Count)
system.l2.overallMshrMisses::switch_cpus_1.inst           74                       # number of overall MSHR misses (Count)
system.l2.overallMshrMisses::switch_cpus_1.data         2231                       # number of overall MSHR misses (Count)
system.l2.overallMshrMisses::total               2305                       # number of overall MSHR misses (Count)
system.l2.demandMshrMissLatency::switch_cpus_1.inst      5506847                       # number of demand (read+write) MSHR miss ticks (Tick)
system.l2.demandMshrMissLatency::switch_cpus_1.data    142347242                       # number of demand (read+write) MSHR miss ticks (Tick)
system.l2.demandMshrMissLatency::total      147854089                       # number of demand (read+write) MSHR miss ticks (Tick)
system.l2.overallMshrMissLatency::switch_cpus_1.inst      5506847                       # number of overall MSHR miss ticks (Tick)
system.l2.overallMshrMissLatency::switch_cpus_1.data    142347242                       # number of overall MSHR miss ticks (Tick)
system.l2.overallMshrMissLatency::total     147854089                       # number of overall MSHR miss ticks (Tick)
system.l2.demandMshrMissRate::switch_cpus_1.inst     0.006747                       # mshr miss ratio for demand accesses (Ratio)
system.l2.demandMshrMissRate::switch_cpus_1.data     0.573817                       # mshr miss ratio for demand accesses (Ratio)
system.l2.demandMshrMissRate::total          0.155156                       # mshr miss ratio for demand accesses (Ratio)
system.l2.overallMshrMissRate::switch_cpus_1.inst     0.006747                       # mshr miss ratio for overall accesses (Ratio)
system.l2.overallMshrMissRate::switch_cpus_1.data     0.573817                       # mshr miss ratio for overall accesses (Ratio)
system.l2.overallMshrMissRate::total         0.155156                       # mshr miss ratio for overall accesses (Ratio)
system.l2.demandAvgMshrMissLatency::switch_cpus_1.inst 74416.851351                       # average overall mshr miss latency ((Tick/Count))
system.l2.demandAvgMshrMissLatency::switch_cpus_1.data 63804.232183                       # average overall mshr miss latency ((Tick/Count))
system.l2.demandAvgMshrMissLatency::total 64144.940998                       # average overall mshr miss latency ((Tick/Count))
system.l2.overallAvgMshrMissLatency::switch_cpus_1.inst 74416.851351                       # average overall mshr miss latency ((Tick/Count))
system.l2.overallAvgMshrMissLatency::switch_cpus_1.data 63804.232183                       # average overall mshr miss latency ((Tick/Count))
system.l2.overallAvgMshrMissLatency::total 64144.940998                       # average overall mshr miss latency ((Tick/Count))
system.l2.replacements                           2372                       # number of replacements (Count)
system.l2.CleanEvict.mshrMisses::writebacks           14                       # number of CleanEvict MSHR misses (Count)
system.l2.CleanEvict.mshrMisses::total             14                       # number of CleanEvict MSHR misses (Count)
system.l2.CleanEvict.mshrMissRate::writebacks          inf                       # mshr miss rate for CleanEvict accesses (Ratio)
system.l2.CleanEvict.mshrMissRate::total          inf                       # mshr miss rate for CleanEvict accesses (Ratio)
system.l2.ReadCleanReq.hits::switch_cpus_1.inst        10894                       # number of ReadCleanReq hits (Count)
system.l2.ReadCleanReq.hits::total              10894                       # number of ReadCleanReq hits (Count)
system.l2.ReadCleanReq.misses::switch_cpus_1.inst           74                       # number of ReadCleanReq misses (Count)
system.l2.ReadCleanReq.misses::total               74                       # number of ReadCleanReq misses (Count)
system.l2.ReadCleanReq.missLatency::switch_cpus_1.inst      5860000                       # number of ReadCleanReq miss ticks (Tick)
system.l2.ReadCleanReq.missLatency::total      5860000                       # number of ReadCleanReq miss ticks (Tick)
system.l2.ReadCleanReq.accesses::switch_cpus_1.inst        10968                       # number of ReadCleanReq accesses(hits+misses) (Count)
system.l2.ReadCleanReq.accesses::total          10968                       # number of ReadCleanReq accesses(hits+misses) (Count)
system.l2.ReadCleanReq.missRate::switch_cpus_1.inst     0.006747                       # miss rate for ReadCleanReq accesses (Ratio)
system.l2.ReadCleanReq.missRate::total       0.006747                       # miss rate for ReadCleanReq accesses (Ratio)
system.l2.ReadCleanReq.avgMissLatency::switch_cpus_1.inst 79189.189189                       # average ReadCleanReq miss latency ((Tick/Count))
system.l2.ReadCleanReq.avgMissLatency::total 79189.189189                       # average ReadCleanReq miss latency ((Tick/Count))
system.l2.ReadCleanReq.mshrMisses::switch_cpus_1.inst           74                       # number of ReadCleanReq MSHR misses (Count)
system.l2.ReadCleanReq.mshrMisses::total           74                       # number of ReadCleanReq MSHR misses (Count)
system.l2.ReadCleanReq.mshrMissLatency::switch_cpus_1.inst      5506847                       # number of ReadCleanReq MSHR miss ticks (Tick)
system.l2.ReadCleanReq.mshrMissLatency::total      5506847                       # number of ReadCleanReq MSHR miss ticks (Tick)
system.l2.ReadCleanReq.mshrMissRate::switch_cpus_1.inst     0.006747                       # mshr miss rate for ReadCleanReq accesses (Ratio)
system.l2.ReadCleanReq.mshrMissRate::total     0.006747                       # mshr miss rate for ReadCleanReq accesses (Ratio)
system.l2.ReadCleanReq.avgMshrMissLatency::switch_cpus_1.inst 74416.851351                       # average ReadCleanReq mshr miss latency ((Tick/Count))
system.l2.ReadCleanReq.avgMshrMissLatency::total 74416.851351                       # average ReadCleanReq mshr miss latency ((Tick/Count))
system.l2.ReadExReq.hits::switch_cpus_1.data          638                       # number of ReadExReq hits (Count)
system.l2.ReadExReq.hits::total                   638                       # number of ReadExReq hits (Count)
system.l2.ReadExReq.misses::switch_cpus_1.data         2196                       # number of ReadExReq misses (Count)
system.l2.ReadExReq.misses::total                2196                       # number of ReadExReq misses (Count)
system.l2.ReadExReq.missLatency::switch_cpus_1.data    150265000                       # number of ReadExReq miss ticks (Tick)
system.l2.ReadExReq.missLatency::total      150265000                       # number of ReadExReq miss ticks (Tick)
system.l2.ReadExReq.accesses::switch_cpus_1.data         2834                       # number of ReadExReq accesses(hits+misses) (Count)
system.l2.ReadExReq.accesses::total              2834                       # number of ReadExReq accesses(hits+misses) (Count)
system.l2.ReadExReq.missRate::switch_cpus_1.data     0.774876                       # miss rate for ReadExReq accesses (Ratio)
system.l2.ReadExReq.missRate::total          0.774876                       # miss rate for ReadExReq accesses (Ratio)
system.l2.ReadExReq.avgMissLatency::switch_cpus_1.data 68426.684882                       # average ReadExReq miss latency ((Tick/Count))
system.l2.ReadExReq.avgMissLatency::total 68426.684882                       # average ReadExReq miss latency ((Tick/Count))
system.l2.ReadExReq.mshrMisses::switch_cpus_1.data         2196                       # number of ReadExReq MSHR misses (Count)
system.l2.ReadExReq.mshrMisses::total            2196                       # number of ReadExReq MSHR misses (Count)
system.l2.ReadExReq.mshrMissLatency::switch_cpus_1.data    139730293                       # number of ReadExReq MSHR miss ticks (Tick)
system.l2.ReadExReq.mshrMissLatency::total    139730293                       # number of ReadExReq MSHR miss ticks (Tick)
system.l2.ReadExReq.mshrMissRate::switch_cpus_1.data     0.774876                       # mshr miss rate for ReadExReq accesses (Ratio)
system.l2.ReadExReq.mshrMissRate::total      0.774876                       # mshr miss rate for ReadExReq accesses (Ratio)
system.l2.ReadExReq.avgMshrMissLatency::switch_cpus_1.data 63629.459472                       # average ReadExReq mshr miss latency ((Tick/Count))
system.l2.ReadExReq.avgMshrMissLatency::total 63629.459472                       # average ReadExReq mshr miss latency ((Tick/Count))
system.l2.ReadSharedReq.hits::switch_cpus_1.data         1019                       # number of ReadSharedReq hits (Count)
system.l2.ReadSharedReq.hits::total              1019                       # number of ReadSharedReq hits (Count)
system.l2.ReadSharedReq.misses::switch_cpus_1.data           35                       # number of ReadSharedReq misses (Count)
system.l2.ReadSharedReq.misses::total              35                       # number of ReadSharedReq misses (Count)
system.l2.ReadSharedReq.missLatency::switch_cpus_1.data      2784000                       # number of ReadSharedReq miss ticks (Tick)
system.l2.ReadSharedReq.missLatency::total      2784000                       # number of ReadSharedReq miss ticks (Tick)
system.l2.ReadSharedReq.accesses::switch_cpus_1.data         1054                       # number of ReadSharedReq accesses(hits+misses) (Count)
system.l2.ReadSharedReq.accesses::total          1054                       # number of ReadSharedReq accesses(hits+misses) (Count)
system.l2.ReadSharedReq.missRate::switch_cpus_1.data     0.033207                       # miss rate for ReadSharedReq accesses (Ratio)
system.l2.ReadSharedReq.missRate::total      0.033207                       # miss rate for ReadSharedReq accesses (Ratio)
system.l2.ReadSharedReq.avgMissLatency::switch_cpus_1.data 79542.857143                       # average ReadSharedReq miss latency ((Tick/Count))
system.l2.ReadSharedReq.avgMissLatency::total 79542.857143                       # average ReadSharedReq miss latency ((Tick/Count))
system.l2.ReadSharedReq.mshrMisses::switch_cpus_1.data           35                       # number of ReadSharedReq MSHR misses (Count)
system.l2.ReadSharedReq.mshrMisses::total           35                       # number of ReadSharedReq MSHR misses (Count)
system.l2.ReadSharedReq.mshrMissLatency::switch_cpus_1.data      2616949                       # number of ReadSharedReq MSHR miss ticks (Tick)
system.l2.ReadSharedReq.mshrMissLatency::total      2616949                       # number of ReadSharedReq MSHR miss ticks (Tick)
system.l2.ReadSharedReq.mshrMissRate::switch_cpus_1.data     0.033207                       # mshr miss rate for ReadSharedReq accesses (Ratio)
system.l2.ReadSharedReq.mshrMissRate::total     0.033207                       # mshr miss rate for ReadSharedReq accesses (Ratio)
system.l2.ReadSharedReq.avgMshrMissLatency::switch_cpus_1.data 74769.971429                       # average ReadSharedReq mshr miss latency ((Tick/Count))
system.l2.ReadSharedReq.avgMshrMissLatency::total 74769.971429                       # average ReadSharedReq mshr miss latency ((Tick/Count))
system.l2.WritebackClean.hits::writebacks        10968                       # number of WritebackClean hits (Count)
system.l2.WritebackClean.hits::total            10968                       # number of WritebackClean hits (Count)
system.l2.WritebackClean.accesses::writebacks        10968                       # number of WritebackClean accesses(hits+misses) (Count)
system.l2.WritebackClean.accesses::total        10968                       # number of WritebackClean accesses(hits+misses) (Count)
system.l2.WritebackDirty.hits::writebacks         3293                       # number of WritebackDirty hits (Count)
system.l2.WritebackDirty.hits::total             3293                       # number of WritebackDirty hits (Count)
system.l2.WritebackDirty.accesses::writebacks         3293                       # number of WritebackDirty accesses(hits+misses) (Count)
system.l2.WritebackDirty.accesses::total         3293                       # number of WritebackDirty accesses(hits+misses) (Count)
system.l2.power_state.pwrStateResidencyTicks::UNDEFINED 152099112000                       # Cumulative time (in ticks) in various power states (Tick)
system.l2.prefetcher.demandMshrMisses            2305                       # demands not covered by prefetchs (Count)
system.l2.prefetcher.pfIssued                       0                       # number of hwpf issued (Count)
system.l2.prefetcher.pfUnused                      10                       # number of HardPF blocks evicted w/o reference (Count)
system.l2.prefetcher.pfUseful                       0                       # number of useful prefetch (Count)
system.l2.prefetcher.pfUsefulButMiss                0                       # number of hit on prefetch but cache block is not in an usable state (Count)
system.l2.prefetcher.accuracy                     nan                       # accuracy of the prefetcher (Count)
system.l2.prefetcher.coverage                       0                       # coverage brought by this prefetcher (Count)
system.l2.prefetcher.pfHitInCache                   0                       # number of prefetches hitting in cache (Count)
system.l2.prefetcher.pfHitInMSHR                    0                       # number of prefetches hitting in a MSHR (Count)
system.l2.prefetcher.pfHitInWB                      0                       # number of prefetches hit in the Write Buffer (Count)
system.l2.prefetcher.pfLate                         0                       # number of late prefetches (hitting in cache, MSHR or WB) (Count)
system.l2.prefetcher.pfIdentified                   0                       # number of prefetch candidates identified (Count)
system.l2.prefetcher.pfBufferHit                    0                       # number of redundant prefetches already in prefetch queue (Count)
system.l2.prefetcher.pfInCache                      0                       # number of redundant prefetches already in cache/mshr dropped (Count)
system.l2.prefetcher.pfRemovedDemand                0                       # number of prefetches dropped due to a demand for the same address (Count)
system.l2.prefetcher.pfRemovedFull                  0                       # number of prefetches dropped due to prefetch queue size (Count)
system.l2.prefetcher.pfSpanPage                     0                       # number of prefetches that crossed the page (Count)
system.l2.prefetcher.pfUsefulSpanPage               0                       # number of prefetches that is useful and crossed the page (Count)
system.l2.prefetcher.power_state.pwrStateResidencyTicks::UNDEFINED 152099112000                       # Cumulative time (in ticks) in various power states (Tick)
system.l2.tags.tagsInUse                         4096                       # Average ticks per tags in use ((Tick/Count))
system.l2.tags.totalRefs                        80778                       # Total number of references to valid blocks. (Count)
system.l2.tags.sampledRefs                       6468                       # Sample count of references to valid blocks. (Count)
system.l2.tags.avgRefs                      12.488868                       # Average number of references to valid blocks. ((Count/Count))
system.l2.tags.warmupTick                           0                       # The tick when the warmup percentage was hit. (Tick)
system.l2.tags.occupancies::writebacks     162.187671                       # Average occupied blocks per tick, per requestor ((Count/Tick))
system.l2.tags.occupancies::l2.prefetcher    18.049818                       # Average occupied blocks per tick, per requestor ((Count/Tick))
system.l2.tags.occupancies::switch_cpus.inst    84.041216                       # Average occupied blocks per tick, per requestor ((Count/Tick))
system.l2.tags.occupancies::switch_cpus.data  2647.551449                       # Average occupied blocks per tick, per requestor ((Count/Tick))
system.l2.tags.occupancies::switch_cpus_1.inst    67.815918                       # Average occupied blocks per tick, per requestor ((Count/Tick))
system.l2.tags.occupancies::switch_cpus_1.data  1116.353928                       # Average occupied blocks per tick, per requestor ((Count/Tick))
system.l2.tags.avgOccs::writebacks           0.039597                       # Average percentage of cache occupancy ((Ratio/Tick))
system.l2.tags.avgOccs::l2.prefetcher        0.004407                       # Average percentage of cache occupancy ((Ratio/Tick))
system.l2.tags.avgOccs::switch_cpus.inst     0.020518                       # Average percentage of cache occupancy ((Ratio/Tick))
system.l2.tags.avgOccs::switch_cpus.data     0.646375                       # Average percentage of cache occupancy ((Ratio/Tick))
system.l2.tags.avgOccs::switch_cpus_1.inst     0.016557                       # Average percentage of cache occupancy ((Ratio/Tick))
system.l2.tags.avgOccs::switch_cpus_1.data     0.272547                       # Average percentage of cache occupancy ((Ratio/Tick))
system.l2.tags.avgOccs::total                       1                       # Average percentage of cache occupancy ((Ratio/Tick))
system.l2.tags.occupanciesTaskId::1022             11                       # Occupied blocks per task id (Count)
system.l2.tags.occupanciesTaskId::1024           4085                       # Occupied blocks per task id (Count)
system.l2.tags.ageTaskId_1022::4                   11                       # Occupied blocks per task id, per block age (Count)
system.l2.tags.ageTaskId_1024::0                    1                       # Occupied blocks per task id, per block age (Count)
system.l2.tags.ageTaskId_1024::1                   12                       # Occupied blocks per task id, per block age (Count)
system.l2.tags.ageTaskId_1024::2                  136                       # Occupied blocks per task id, per block age (Count)
system.l2.tags.ageTaskId_1024::3                 1239                       # Occupied blocks per task id, per block age (Count)
system.l2.tags.ageTaskId_1024::4                 2697                       # Occupied blocks per task id, per block age (Count)
system.l2.tags.ratioOccsTaskId::1022         0.002686                       # Ratio of occupied blocks and all blocks, per task id (Ratio)
system.l2.tags.ratioOccsTaskId::1024         0.997314                       # Ratio of occupied blocks and all blocks, per task id (Ratio)
system.l2.tags.tagAccesses                     240044                       # Number of tag accesses (Count)
system.l2.tags.dataAccesses                    240044                       # Number of data accesses (Count)
system.l2.tags.power_state.pwrStateResidencyTicks::UNDEFINED 152099112000                       # Cumulative time (in ticks) in various power states (Tick)
system.mem_ctrls.avgPriority_writebacks::samples      2145.00                       # Average QoS priority value for accepted requests (Count)
system.mem_ctrls.avgPriority_switch_cpus_1.inst::samples        74.00                       # Average QoS priority value for accepted requests (Count)
system.mem_ctrls.avgPriority_switch_cpus_1.data::samples      2231.00                       # Average QoS priority value for accepted requests (Count)
system.mem_ctrls.priorityMinLatency      0.000000018750                       # per QoS priority minimum request to response latency (Second)
system.mem_ctrls.priorityMaxLatency      0.001137235500                       # per QoS priority maximum request to response latency (Second)
system.mem_ctrls.numReadWriteTurnArounds          119                       # Number of turnarounds from READ to WRITE (Count)
system.mem_ctrls.numWriteReadTurnArounds          119                       # Number of turnarounds from WRITE to READ (Count)
system.mem_ctrls.numStayReadState               10784                       # Number of times bus staying in READ state (Count)
system.mem_ctrls.numStayWriteState               2006                       # Number of times bus staying in WRITE state (Count)
system.mem_ctrls.readReqs                        2305                       # Number of read requests accepted (Count)
system.mem_ctrls.writeReqs                       2145                       # Number of write requests accepted (Count)
system.mem_ctrls.readBursts                      2305                       # Number of controller read bursts, including those serviced by the write queue (Count)
system.mem_ctrls.writeBursts                     2145                       # Number of controller write bursts, including those merged in the write queue (Count)
system.mem_ctrls.servicedByWrQ                      0                       # Number of controller read bursts serviced by the write queue (Count)
system.mem_ctrls.mergedWrBursts                     0                       # Number of controller write bursts merged with an existing one (Count)
system.mem_ctrls.neitherReadNorWriteReqs            0                       # Number of requests that are neither read nor write (Count)
system.mem_ctrls.avgRdQLen                       1.00                       # Average read queue length when enqueuing ((Count/Tick))
system.mem_ctrls.avgWrQLen                      24.54                       # Average write queue length when enqueuing ((Count/Tick))
system.mem_ctrls.numRdRetry                         0                       # Number of times read queue was full causing retry (Count)
system.mem_ctrls.numWrRetry                         0                       # Number of times write queue was full causing retry (Count)
system.mem_ctrls.readPktSize::0                     0                       # Read request sizes (log2) (Count)
system.mem_ctrls.readPktSize::1                     0                       # Read request sizes (log2) (Count)
system.mem_ctrls.readPktSize::2                     0                       # Read request sizes (log2) (Count)
system.mem_ctrls.readPktSize::3                     0                       # Read request sizes (log2) (Count)
system.mem_ctrls.readPktSize::4                     0                       # Read request sizes (log2) (Count)
system.mem_ctrls.readPktSize::5                     0                       # Read request sizes (log2) (Count)
system.mem_ctrls.readPktSize::6                  2305                       # Read request sizes (log2) (Count)
system.mem_ctrls.writePktSize::0                    0                       # Write request sizes (log2) (Count)
system.mem_ctrls.writePktSize::1                    0                       # Write request sizes (log2) (Count)
system.mem_ctrls.writePktSize::2                    0                       # Write request sizes (log2) (Count)
system.mem_ctrls.writePktSize::3                    0                       # Write request sizes (log2) (Count)
system.mem_ctrls.writePktSize::4                    0                       # Write request sizes (log2) (Count)
system.mem_ctrls.writePktSize::5                    0                       # Write request sizes (log2) (Count)
system.mem_ctrls.writePktSize::6                 2145                       # Write request sizes (log2) (Count)
system.mem_ctrls.rdQLenPdf::0                    2239                       # What read queue length does an incoming req see (Count)
[...]
system.switch_cpus_1.iew.unblockCycles           3167                       # Number of cycles IEW is unblocking (Cycle)
system.switch_cpus_1.iew.dispatchedInsts     91916593                       # Number of instructions dispatched to IQ (Count)
system.switch_cpus_1.iew.dispSquashedInsts        36432                       # Number of squashed instructions skipped by dispatch (Count)
system.switch_cpus_1.iew.dispLoadInsts       12548279                       # Number of dispatched load instructions (Count)
system.switch_cpus_1.iew.dispStoreInsts       8897743                       # Number of dispatched store instructions (Count)
system.switch_cpus_1.iew.dispNonSpecInsts            6                       # Number of dispatched non-speculative instructions (Count)
system.switch_cpus_1.iew.iqFullEvents               0                       # Number of times the IQ has become full, causing a stall (Count)
system.switch_cpus_1.iew.lsqFullEvents           3164                       # Number of times the LSQ has become full, causing a stall (Count)
system.switch_cpus_1.iew.memOrderViolationEvents          211                       # Number of memory order violations (Count)
system.switch_cpus_1.iew.predictedTakenIncorrect        35629                       # Number of branches that were predicted taken incorrectly (Count)
system.switch_cpus_1.iew.predictedNotTakenIncorrect        37772                       # Number of branches that were predicted not taken incorrectly (Count)
system.switch_cpus_1.iew.branchMispredicts        73401                       # Number of branch mispredicts detected at execute (Count)
system.switch_cpus_1.iew.instsToCommit       91552077                       # Cumulative count of insts sent to commit (Count)
system.switch_cpus_1.iew.writebackCount      91549905                       # Cumulative count of insts written-back (Count)
system.switch_cpus_1.iew.producerInst        60339222                       # Number of instructions producing a value (Count)
system.switch_cpus_1.iew.consumerInst        86779197                       # Number of instructions consuming a value (Count)
system.switch_cpus_1.iew.wbRate              2.858877                       # Insts written-back per cycle ((Count/Cycle))
system.switch_cpus_1.iew.wbFanout            0.695319                       # Average fanout of values written-back ((Count/Count))
system.switch_cpus_1.lsq0.forwLoads           3790992                       # Number of loads that had data forwarded from stores (Count)
system.switch_cpus_1.lsq0.squashedLoads        107910                       # Number of loads squashed (Count)
system.switch_cpus_1.lsq0.ignoredResponses           36                       # Number of memory responses ignored because the instruction is squashed (Count)
system.switch_cpus_1.lsq0.memOrderViolation          211                       # Number of memory ordering violations (Count)
system.switch_cpus_1.lsq0.squashedStores        47882                       # Number of stores squashed (Count)
system.switch_cpus_1.lsq0.rescheduledLoads        69161                       # Number of loads that were rescheduled (Count)
system.switch_cpus_1.lsq0.blockedByCache            0                       # Number of times an access to memory failed due to the cache being blocked (Count)
system.switch_cpus_1.lsq0.loadToUse::samples     12440369                       # Distribution of cycle latency between the first time a load is issued and its completion (Unspecified)
system.switch_cpus_1.lsq0.loadToUse::mean     3.641701                       # Distribution of cycle latency between the first time a load is issued and its completion (Unspecified)
system.switch_cpus_1.lsq0.loadToUse::stdev     2.376032                       # Distribution of cycle latency between the first time a load is issued and its completion (Unspecified)
system.switch_cpus_1.lsq0.loadToUse::0-9     12369918     99.43%     99.43% # Distribution of cycle latency between the first time a load is issued and its completion (Unspecified)
system.switch_cpus_1.lsq0.loadToUse::10-19         1166      0.01%     99.44% # Distribution of cycle latency between the first time a load is issued and its completion (Unspecified)
system.switch_cpus_1.lsq0.loadToUse::20-29        66616      0.54%     99.98% # Distribution of cycle latency between the first time a load is issued and its completion (Unspecified)
system.switch_cpus_1.lsq0.loadToUse::30-39          367      0.00%     99.98% # Distribution of cycle latency between the first time a load is issued and its completion (Unspecified)
system.switch_cpus_1.lsq0.loadToUse::40-49           78      0.00%     99.98% # Distribution of cycle latency between the first time a load is issued and its completion (Unspecified)
system.switch_cpus_1.lsq0.loadToUse::50-59         1198      0.01%     99.99% # Distribution of cycle latency between the first time a load is issued and its completion (Unspecified)
system.switch_cpus_1.lsq0.loadToUse::60-69            2      0.00%     99.99% # Distribution of cycle latency between the first time a load is issued and its completion (Unspecified)
system.switch_cpus_1.lsq0.loadToUse::70-79           17      0.00%     99.99% # Distribution of cycle latency between the first time a load is issued and its completion (Unspecified)
system.switch_cpus_1.lsq0.loadToUse::80-89           31      0.00%     99.99% # Distribution of cycle latency between the first time a load is issued and its completion (Unspecified)
system.switch_cpus_1.lsq0.loadToUse::90-99            3      0.00%     99.99% # Distribution of cycle latency between the first time a load is issued and its completion (Unspecified)
system.switch_cpus_1.lsq0.loadToUse::100-109            2      0.00%     99.99% # Distribution of cycle latency between the first time a load is issued and its completion (Unspecified)
system.switch_cpus_1.lsq0.loadToUse::110-119            4      0.00%     99.99% # Distribution of cycle latency between the first time a load is issued and its completion (Unspecified)
system.switch_cpus_1.lsq0.loadToUse::120-129            2      0.00%     99.99% # Distribution of cycle latency between the first time a load is issued and its completion (Unspecified)
system.switch_cpus_1.lsq0.loadToUse::130-139          115      0.00%     99.99% # Distribution of cycle latency between the first time a load is issued and its completion (Unspecified)
system.switch_cpus_1.lsq0.loadToUse::140-149           11      0.00%     99.99% # Distribution of cycle latency between the first time a load is issued and its completion (Unspecified)
system.switch_cpus_1.lsq0.loadToUse::150-159          785      0.01%    100.00% # Distribution of cycle latency between the first time a load is issued and its completion (Unspecified)
system.switch_cpus_1.lsq0.loadToUse::160-169            4      0.00%    100.00% # Distribution of cycle latency between the first time a load is issued and its completion (Unspecified)
system.switch_cpus_1.lsq0.loadToUse::170-179            1      0.00%    100.00% # Distribution of cycle latency between the first time a load is issued and its completion (Unspecified)
system.switch_cpus_1.lsq0.loadToUse::180-189           17      0.00%    100.00% # Distribution of cycle latency between the first time a load is issued and its completion (Unspecified)
system.switch_cpus_1.lsq0.loadToUse::190-199            4      0.00%    100.00% # Distribution of cycle latency between the first time a load is issued and its completion (Unspecified)
system.switch_cpus_1.lsq0.loadToUse::200-209            1      0.00%    100.00% # Distribution of cycle latency between the first time a load is issued and its completion (Unspecified)
system.switch_cpus_1.lsq0.loadToUse::210-219            2      0.00%    100.00% # Distribution of cycle latency between the first time a load is issued and its completion (Unspecified)
system.switch_cpus_1.lsq0.loadToUse::220-229            1      0.00%    100.00% # Distribution of cycle latency between the first time a load is issued and its completion (Unspecified)
system.switch_cpus_1.lsq0.loadToUse::230-239            1      0.00%    100.00% # Distribution of cycle latency between the first time a load is issued and its completion (Unspecified)
system.switch_cpus_1.lsq0.loadToUse::250-259            1      0.00%    100.00% # Distribution of cycle latency between the first time a load is issued and its completion (Unspecified)
system.switch_cpus_1.lsq0.loadToUse::260-269            1      0.00%    100.00% # Distribution of cycle latency between the first time a load is issued and its completion (Unspecified)
system.switch_cpus_1.lsq0.loadToUse::290-299            3      0.00%    100.00% # Distribution of cycle latency between the first time a load is issued and its completion (Unspecified)
system.switch_cpus_1.lsq0.loadToUse::overflows           18      0.00%    100.00% # Distribution of cycle latency between the first time a load is issued and its completion (Unspecified)
system.switch_cpus_1.lsq0.loadToUse::min_value            2                       # Distribution of cycle latency between the first time a load is issued and its completion (Unspecified)
system.switch_cpus_1.lsq0.loadToUse::max_value          687                       # Distribution of cycle latency between the first time a load is issued and its completion (Unspecified)
system.switch_cpus_1.lsq0.loadToUse::total     12440369                       # Distribution of cycle latency between the first time a load is issued and its completion (Unspecified)
system.switch_cpus_1.mmu.dtb.rdAccesses      12587527                       # TLB accesses on read requests (Count)
system.switch_cpus_1.mmu.dtb.wrAccesses       8868252                       # TLB accesses on write requests (Count)
system.switch_cpus_1.mmu.dtb.rdMisses              25                       # TLB misses on read requests (Count)
system.switch_cpus_1.mmu.dtb.wrMisses             102                       # TLB misses on write requests (Count)
system.switch_cpus_1.mmu.dtb.walker.power_state.pwrStateResidencyTicks::UNDEFINED 152099112000                       # Cumulative time (in ticks) in various power states (Tick)
system.switch_cpus_1.mmu.itb.rdAccesses             0                       # TLB accesses on read requests (Count)
system.switch_cpus_1.mmu.itb.wrAccesses       7666301                       # TLB accesses on write requests (Count)
system.switch_cpus_1.mmu.itb.rdMisses               0                       # TLB misses on read requests (Count)
system.switch_cpus_1.mmu.itb.wrMisses              37                       # TLB misses on write requests (Count)
system.switch_cpus_1.mmu.itb.walker.power_state.pwrStateResidencyTicks::UNDEFINED 152099112000                       # Cumulative time (in ticks) in various power states (Tick)
system.switch_cpus_1.power_state.pwrStateResidencyTicks::OFF 152099112000                       # Cumulative time (in ticks) in various power states (Tick)
system.switch_cpus_1.rename.squashCycles        71859                       # Number of cycles rename is squashing (Cycle)
system.switch_cpus_1.rename.idleCycles       14341159                       # Number of cycles rename is idle (Cycle)
system.switch_cpus_1.rename.blockCycles         94218                       # Number of cycles rename is blocking (Cycle)
system.switch_cpus_1.rename.serializeStallCycles            0                       # count of cycles rename stalled for serializing inst (Cycle)
system.switch_cpus_1.rename.runCycles        14388617                       # Number of cycles rename is running (Cycle)
system.switch_cpus_1.rename.unblockCycles      3125583                       # Number of cycles rename is unblocking (Cycle)
system.switch_cpus_1.rename.renamedInsts     92390544                       # Number of instructions processed by rename (Count)
system.switch_cpus_1.rename.ROBFullEvents           42                       # Number of times rename has blocked due to ROB full (Count)
system.switch_cpus_1.rename.IQFullEvents            5                       # Number of times rename has blocked due to IQ full (Count)
system.switch_cpus_1.rename.LQFullEvents          103                       # Number of times rename has blocked due to LQ full (Count)
system.switch_cpus_1.rename.SQFullEvents      3048944                       # Number of times rename has blocked due to SQ full (Count)
system.switch_cpus_1.rename.renamedOperands    136095877                       # Number of destination operands rename has renamed (Count)
system.switch_cpus_1.rename.lookups         296335000                       # Number of register rename lookups that rename has made (Count)
system.switch_cpus_1.rename.intLookups      102796911                       # Number of integer rename lookups (Count)
system.switch_cpus_1.rename.fpLookups          831917                       # Number of floating rename lookups (Count)
system.switch_cpus_1.rename.committedMaps    133664095                       # Number of HB maps that are committed (Count)
system.switch_cpus_1.rename.undoneMaps        2431781                       # Number of HB maps that are undone due to squashing (Count)
system.switch_cpus_1.rename.serializing             0                       # count of serializing insts renamed (Count)
system.switch_cpus_1.rename.tempSerializing            0                       # count of temporary serializing insts renamed (Count)
system.switch_cpus_1.rename.skidInsts         3663503                       # count of insts added to the skid buffer (Count)
system.switch_cpus_1.rob.reads              119130469                       # The number of ROB reads (Count)
system.switch_cpus_1.rob.writes             183991616                       # The number of ROB writes (Count)
system.switch_cpus_1.thread_0.numInsts       50000000                       # Number of Instructions committed (Count)
system.switch_cpus_1.thread_0.numOps         90954567                       # Number of Ops committed (Count)
system.switch_cpus_1.thread_0.numMemRefs            0                       # Number of Memory References (Count)
system.tol2bus.transDist::ReadResp              12022                       # Transaction distribution (Count)
system.tol2bus.transDist::WritebackDirty         5438                       # Transaction distribution (Count)
system.tol2bus.transDist::WritebackClean        10968                       # Transaction distribution (Count)
system.tol2bus.transDist::CleanEvict              822                       # Transaction distribution (Count)
system.tol2bus.transDist::ReadExReq              2834                       # Transaction distribution (Count)
system.tol2bus.transDist::ReadExResp             2834                       # Transaction distribution (Count)
system.tol2bus.transDist::ReadCleanReq          10968                       # Transaction distribution (Count)
system.tol2bus.transDist::ReadSharedReq          1054                       # Transaction distribution (Count)
system.tol2bus.pktCount_system.cpu.icache.mem_side_port::system.l2.cpu_side_port        32904                       # Packet count per connected requestor and responder (Count)
system.tol2bus.pktCount_system.cpu.dcache.mem_side_port::system.l2.cpu_side_port        11664                       # Packet count per connected requestor and responder (Count)
system.tol2bus.pktCount::total                  44568                       # Packet count per connected requestor and responder (Count)
system.tol2bus.pktSize_system.cpu.icache.mem_side_port::system.l2.cpu_side_port      1403904                       # Cumulative packet size per connected requestor and responder (Byte)
system.tol2bus.pktSize_system.cpu.dcache.mem_side_port::system.l2.cpu_side_port       459584                       # Cumulative packet size per connected requestor and responder (Byte)
system.tol2bus.pktSize::total                 1863488                       # Cumulative packet size per connected requestor and responder (Byte)
system.tol2bus.snoops                            2372                       # Total snoops (Count)
system.tol2bus.snoopTraffic                    137280                       # Total snoop traffic (Byte)
system.tol2bus.snoopFanout::samples             17228                       # Request fanout histogram (Count)
system.tol2bus.snoopFanout::mean             0.008358                       # Request fanout histogram (Count)
system.tol2bus.snoopFanout::stdev            0.091045                       # Request fanout histogram (Count)
system.tol2bus.snoopFanout::underflows              0      0.00%      0.00% # Request fanout histogram (Count)
system.tol2bus.snoopFanout::0                   17084     99.16%     99.16% # Request fanout histogram (Count)
system.tol2bus.snoopFanout::1                     144      0.84%    100.00% # Request fanout histogram (Count)
system.tol2bus.snoopFanout::2                       0      0.00%    100.00% # Request fanout histogram (Count)
system.tol2bus.snoopFanout::3                       0      0.00%    100.00% # Request fanout histogram (Count)
system.tol2bus.snoopFanout::4                       0      0.00%    100.00% # Request fanout histogram (Count)
system.tol2bus.snoopFanout::overflows               0      0.00%    100.00% # Request fanout histogram (Count)
system.tol2bus.snoopFanout::min_value               0                       # Request fanout histogram (Count)
system.tol2bus.snoopFanout::max_value               1                       # Request fanout histogram (Count)
system.tol2bus.snoopFanout::total               17228                       # Request fanout histogram (Count)
system.tol2bus.power_state.pwrStateResidencyTicks::UNDEFINED 152099112000                       # Cumulative time (in ticks) in various power states (Tick)
system.tol2bus.reqLayer0.occupancy           29117000                       # Layer occupancy (ticks) (Tick)
system.tol2bus.reqLayer0.utilization              0.0                       # Layer utilization (Ratio)
system.tol2bus.respLayer0.occupancy          16452499                       # Layer occupancy (ticks) (Tick)
system.tol2bus.respLayer0.utilization             0.0                       # Layer utilization (Ratio)
system.tol2bus.respLayer1.occupancy           5832000                       # Layer occupancy (ticks) (Tick)
system.tol2bus.respLayer1.utilization             0.0                       # Layer utilization (Ratio)
system.tol2bus.snoop_filter.totRequests         29712                       # Total number of requests made to the snoop filter. (Count)
system.tol2bus.snoop_filter.hitSingleRequests        14856                       # Number of requests hitting in the snoop filter with a single holder of the requested data. (Count)
system.tol2bus.snoop_filter.hitMultiRequests            3                       # Number of requests hitting in the snoop filter with multiple (>1) holders of the requested data. (Count)
system.tol2bus.snoop_filter.totSnoops             141                       # Total number of snoops made to the snoop filter. (Count)
system.tol2bus.snoop_filter.hitSingleSnoops          141                       # Number of snoops hitting in the snoop filter with a single holder of the requested data. (Count)
system.tol2bus.snoop_filter.hitMultiSnoops            0                       # Number of snoops hitting in the snoop filter with multiple (>1) holders of the requested data. (Count)
system.voltage_domain.voltage                       1                       # Voltage in Volts (Volt)
system.workload.inst.arm                            0                       # number of arm instructions executed (Count)
system.workload.inst.quiesce                        0                       # number of quiesce instructions executed (Count)

---------- End Simulation Statistics   ----------
