
---------- Begin Simulation Statistics ----------
simSeconds                                   0.032231                       # Number of seconds simulated (Second)
simTicks                                  32230587250                       # Number of ticks simulated (Tick)
finalTick                                168318183500                       # Number of ticks from beginning of simulation (restored from checkpoints and never reset) (Tick)
simFreq                                  1000000000000                       # The number of ticks per simulated second ((Tick/Second))
hostSeconds                                    243.52                       # Real time elapsed on the host (Second)
hostTickRate                                132352034                       # The number of ticks simulated per host second (ticks/s) ((Tick/Second))
hostMemory                                    4482580                       # Number of bytes of host memory used (Byte)
simInsts                                    100100002                       # Number of instructions simulated (Count)
simOps                                      183133730                       # Number of ops (including micro ops) simulated (Count)
hostInstRate                                   411052                       # Simulator instruction rate (inst/s) ((Count/Second))
hostOpRate                                     752022                       # Simulator op (including micro ops) rate (op/s) ((Count/Second))
system.clk_domain.clock                           333                       # Clock period in ticks (Tick)
system.cpu.numCycles                                0                       # Number of cpu cycles simulated (Cycle)
system.cpu.cpi                                    nan                       # CPI: cycles per instruction (core level) ((Cycle/Count))
system.cpu.ipc                                    nan                       # IPC: instructions per cycle (core level) ((Count/Cycle))
system.cpu.numWorkItemsStarted                      0                       # Number of work items this cpu started (Count)
system.cpu.numWorkItemsCompleted                    0                       # Number of work items this cpu completed (Count)
system.cpu.branchPred.lookups_0::NoBranch            0                       # Number of BP lookups (Count)
system.cpu.branchPred.lookups_0::Return             0                       # Number of BP lookups (Count)
system.cpu.branchPred.lookups_0::CallDirect            0                       # Number of BP lookups (Count)
system.cpu.branchPred.lookups_0::CallIndirect            0                       # Number of BP lookups (Count)
system.cpu.branchPred.lookups_0::DirectCond            0                       # Number of BP lookups (Count)
system.cpu.branchPred.lookups_0::DirectUncond            0                       # Number of BP lookups (Count)
system.cpu.branchPred.lookups_0::IndirectCond            0                       # Number of BP lookups (Count)
system.cpu.branchPred.lookups_0::IndirectUncond            0                       # Number of BP lookups (Count)
system.cpu.branchPred.lookups_0::total              0                       # Number of BP lookups (Count)
system.cpu.branchPred.squashes_0::NoBranch            0                       # Number of branches that got squashed (completely removed) as an earlier branch was mispredicted. (Count)
system.cpu.branchPred.squashes_0::Return            0                       # Number of branches that got squashed (completely removed) as an earlier branch was mispredicted. (Count)
system.cpu.branchPred.squashes_0::CallDirect            0                       # Number of branches that got squashed (completely removed) as an earlier branch was mispredicted. (Count)
system.cpu.branchPred.squashes_0::CallIndirect            0                       # Number of branches that got squashed (completely removed) as an earlier branch was mispredicted. (Count)
system.cpu.branchPred.squashes_0::DirectCond            0                       # Number of branches that got squashed (completely removed) as an earlier branch was mispredicted. (Count)
system.cpu.branchPred.squashes_0::DirectUncond            0                       # Number of branches that got squashed (completely removed) as an earlier branch was mispredicted. (Count)
system.cpu.branchPred.squashes_0::IndirectCond            0                       # Number of branches that got squashed (completely removed) as an earlier branch was mispredicted. (Count)
system.cpu.branchPred.squashes_0::IndirectUncond            0                       # Number of branches that got squashed (completely removed) as an earlier branch was mispredicted. (Count)
system.cpu.branchPred.squashes_0::total             0                       # Number of branches that got squashed (completely removed) as an earlier branch was mispredicted. (Count)
system.cpu.branchPred.corrected_0::NoBranch            0                       # Number of branches that got corrected but not yet commited. Branches get corrected by decode or after execute. Also a branch misprediction can be detected out-of-order. Therefore, a corrected branch might not end up beeing committed in case an even earlier branch was mispredicted (Count)
system.cpu.branchPred.corrected_0::Return            0                       # Number of branches that got corrected but not yet commited. Branches get corrected by decode or after execute. Also a branch misprediction can be detected out-of-order. Therefore, a corrected branch might not end up beeing committed in case an even earlier branch was mispredicted (Count)
system.cpu.branchPred.corrected_0::CallDirect            0                       # Number of branches that got corrected but not yet commited. Branches get corrected by decode or after execute. Also a branch misprediction can be detected out-of-order. Therefore, a corrected branch might not end up beeing committed in case an even earlier branch was mispredicted (Count)
system.cpu.branchPred.corrected_0::CallIndirect            0                       # Number of branches that got corrected but not yet commited. Branches get corrected by decode or after execute. Also a branch misprediction can be detected out-of-order. Therefore, a corrected branch might not end up beeing committed in case an even earlier branch was mispredicted (Count)
system.cpu.branchPred.corrected_0::DirectCond            0                       # Number of branches that got corrected but not yet commited. Branches get corrected by decode or after execute. Also a branch misprediction can be detected out-of-order. Therefore, a corrected branch might not end up beeing committed in case an even earlier branch was mispredicted (Count)
system.cpu.branchPred.corrected_0::DirectUncond            0                       # Number of branches that got corrected but not yet commited. Branches get corrected by decode or after execute. Also a branch misprediction can be detected out-of-order. Therefore, a corrected branch might not end up beeing committed in case an even earlier branch was mispredicted (Count)
system.cpu.branchPred.corrected_0::IndirectCond            0                       # Number of branches that got corrected but not yet commited. Branches get corrected by decode or after execute. Also a branch misprediction can be detected out-of-order. Therefore, a corrected branch might not end up beeing committed in case an even earlier branch was mispredicted (Count)
system.cpu.branchPred.corrected_0::IndirectUncond            0                       # Number of branches that got corrected but not yet commited. Branches get corrected by decode or after execute. Also a branch misprediction can be detected out-of-order. Therefore, a corrected branch might not end up beeing committed in case an even earlier branch was mispredicted (Count)
system.cpu.branchPred.corrected_0::total            0                       # Number of branches that got corrected but not yet commited. Branches get corrected by decode or after execute. Also a branch misprediction can be detected out-of-order. Therefore, a corrected branch might not end up beeing committed in case an even earlier branch was mispredicted (Count)
system.cpu.branchPred.earlyResteers_0::NoBranch            0                       # Number of branches that got redirected after decode. (Count)
system.cpu.branchPred.earlyResteers_0::Return            0                       # Number of branches that got redirected after decode. (Count)
system.cpu.branchPred.earlyResteers_0::CallDirect            0                       # Number of branches that got redirected after decode. (Count)
system.cpu.branchPred.earlyResteers_0::CallIndirect            0                       # Number of branches that got redirected after decode. (Count)
system.cpu.branchPred.earlyResteers_0::DirectCond            0                       # Number of branches that got redirected after decode. (Count)
system.cpu.branchPred.earlyResteers_0::DirectUncond            0                       # Number of branches that got redirected after decode. (Count)
system.cpu.branchPred.earlyResteers_0::IndirectCond            0                       # Number of branches that got redirected after decode. (Count)
system.cpu.branchPred.earlyResteers_0::IndirectUncond            0                       # Number of branches that got redirected after decode. (Count)
system.cpu.branchPred.earlyResteers_0::total            0                       # Number of branches that got redirected after decode. (Count)
system.cpu.branchPred.committed_0::NoBranch            0                       # Number of branches finally committed  (Count)
system.cpu.branchPred.committed_0::Return            0                       # Number of branches finally committed  (Count)
system.cpu.branchPred.committed_0::CallDirect            0                       # Number of branches finally committed  (Count)
system.cpu.branchPred.committed_0::CallIndirect            0                       # Number of branches finally committed  (Count)
system.cpu.branchPred.committed_0::DirectCond            0                       # Number of branches finally committed  (Count)
system.cpu.branchPred.committed_0::DirectUncond            0                       # Number of branches finally committed  (Count)
system.cpu.branchPred.committed_0::IndirectCond            0                       # Number of branches finally committed  (Count)
system.cpu.branchPred.committed_0::IndirectUncond            0                       # Number of branches finally committed  (Count)
system.cpu.branchPred.committed_0::total            0                       # Number of branches finally committed  (Count)
system.cpu.branchPred.mispredicted_0::NoBranch            0                       # Number of committed branches that were mispredicted. (Count)
system.cpu.branchPred.mispredicted_0::Return            0                       # Number of committed branches that were mispredicted. (Count)
system.cpu.branchPred.mispredicted_0::CallDirect            0                       # Number of committed branches that were mispredicted. (Count)
system.cpu.branchPred.mispredicted_0::CallIndirect            0                       # Number of committed branches that were mispredicted. (Count)
system.cpu.branchPred.mispredicted_0::DirectCond            0                       # Number of committed branches that were mispredicted. (Count)
system.cpu.branchPred.mispredicted_0::DirectUncond            0                       # Number of committed branches that were mispredicted. (Count)
system.cpu.branchPred.mispredicted_0::IndirectCond            0                       # Number of committed branches that were mispredicted. (Count)
system.cpu.branchPred.mispredicted_0::IndirectUncond            0                       # Number of committed branches that were mispredicted. (Count)
system.cpu.branchPred.mispredicted_0::total            0                       # Number of committed branches that were mispredicted. (Count)
system.cpu.branchPred.targetProvider_0::NoTarget            0                       # The component providing the target for taken branches (Count)
system.cpu.branchPred.targetProvider_0::BTB            0                       # The component providing the target for taken branches (Count)
system.cpu.branchPred.targetProvider_0::RAS            0                       # The component providing the target for taken branches (Count)
system.cpu.branchPred.targetProvider_0::Indirect            0                       # The component providing the target for taken branches (Count)
system.cpu.branchPred.targetProvider_0::total            0                       # The component providing the target for taken branches (Count)
system.cpu.branchPred.targetWrong_0::NoBranch            0                       # Number of branches where the target was incorrect or not available at prediction time. (Count)
system.cpu.branchPred.targetWrong_0::Return            0                       # Number of branches where the target was incorrect or not available at prediction time. (Count)
system.cpu.branchPred.targetWrong_0::CallDirect            0                       # Number of branches where the target was incorrect or not available at prediction time. (Count)
system.cpu.branchPred.targetWrong_0::CallIndirect            0                       # Number of branches where the target was incorrect or not available at prediction time. (Count)
system.cpu.branchPred.targetWrong_0::DirectCond            0                       # Number of branches where the target was incorrect or not available at prediction time. (Count)
system.cpu.branchPred.targetWrong_0::DirectUncond            0                       # Number of branches where the target was incorrect or not available at prediction time. (Count)
system.cpu.branchPred.targetWrong_0::IndirectCond            0                       # Number of branches where the target was incorrect or not available at prediction time. (Count)
system.cpu.branchPred.targetWrong_0::IndirectUncond            0                       # Number of branches where the target was incorrect or not available at prediction time. (Count)
system.cpu.branchPred.targetWrong_0::total            0                       # Number of branches where the target was incorrect or not available at prediction time. (Count)
system.cpu.branchPred.condPredicted                 0                       # Number of conditional branches predicted (Count)
system.cpu.branchPred.condPredictedTaken            0                       # Number of conditional branches predicted as taken (Count)
system.cpu.branchPred.condIncorrect                 0                       # Number of conditional branches incorrect (Count)
system.cpu.branchPred.predTakenBTBMiss              0                       # Number of branches predicted taken but missed in BTB (Count)
system.cpu.branchPred.NotTakenMispredicted            0                       # Number branches predicted 'not taken' but turned out to be taken (Count)
system.cpu.branchPred.TakenMispredicted             0                       # Number branches predicted taken but are actually not taken (Count)
system.cpu.branchPred.BTBLookups                    0                       # Number of BTB lookups (Count)
system.cpu.branchPred.BTBUpdates                    0                       # Number of BTB updates (Count)
system.cpu.branchPred.BTBHits                       0                       # Number of BTB hits (Count)
system.cpu.branchPred.BTBHitRatio                 nan                       # BTB Hit Ratio (Ratio)
system.cpu.branchPred.BTBMispredicted               0                       # Number BTB mispredictions. No target found or target wrong (Count)
system.cpu.branchPred.indirectLookups               0                       # Number of indirect predictor lookups. (Count)
system.cpu.branchPred.indirectHits                  0                       # Number of indirect target hits. (Count)
system.cpu.branchPred.indirectMisses                0                       # Number of indirect misses. (Count)
system.cpu.branchPred.indirectMispredicted            0                       # Number of mispredicted indirect branches. (Count)
system.cpu.branchPred.btb.lookups::NoBranch            0                       # Number of BTB lookups (Count)
system.cpu.branchPred.btb.lookups::Return            0                       # Number of BTB lookups (Count)
system.cpu.branchPred.btb.lookups::CallDirect            0                       # Number of BTB lookups (Count)
system.cpu.branchPred.btb.lookups::CallIndirect            0                       # Number of BTB lookups (Count)
system.cpu.branchPred.btb.lookups::DirectCond            0                       # Number of BTB lookups (Count)
system.cpu.branchPred.btb.lookups::DirectUncond            0                       # Number of BTB lookups (Count)
system.cpu.branchPred.btb.lookups::IndirectCond            0                       # Number of BTB lookups (Count)
system.cpu.branchPred.btb.lookups::IndirectUncond            0                       # Number of BTB lookups (Count)
system.cpu.branchPred.btb.lookups::total            0                       # Number of BTB lookups (Count)
system.cpu.branchPred.btb.misses::NoBranch            0                       # Number of BTB misses (Count)
system.cpu.branchPred.btb.misses::Return            0                       # Number of BTB misses (Count)
system.cpu.branchPred.btb.misses::CallDirect            0                       # Number of BTB misses (Count)
system.cpu.branchPred.btb.misses::CallIndirect            0                       # Number of BTB misses (Count)
system.cpu.branchPred.btb.misses::DirectCond            0                       # Number of BTB misses (Count)
system.cpu.branchPred.btb.misses::DirectUncond            0                       # Number of BTB misses (Count)
system.cpu.branchPred.btb.misses::IndirectCond            0                       # Number of BTB misses (Count)
system.cpu.branchPred.btb.misses::IndirectUncond            0                       # Number of BTB misses (Count)
system.cpu.branchPred.btb.misses::total             0                       # Number of BTB misses (Count)
system.cpu.branchPred.btb.updates::NoBranch            0                       # Number of BTB updates (Count)
system.cpu.branchPred.btb.updates::Return            0                       # Number of BTB updates (Count)
system.cpu.branchPred.btb.updates::CallDirect            0                       # Number of BTB updates (Count)
system.cpu.branchPred.btb.updates::CallIndirect            0                       # Number of BTB updates (Count)
system.cpu.branchPred.btb.updates::DirectCond            0                       # Number of BTB updates (Count)
system.cpu.branchPred.btb.updates::DirectUncond            0                       # Number of BTB updates (Count)
system.cpu.branchPred.btb.updates::IndirectCond            0                       # Number of BTB updates (Count)
system.cpu.branchPred.btb.updates::IndirectUncond            0                       # Number of BTB updates (Count)
system.cpu.branchPred.btb.updates::total            0                       # Number of BTB updates (Count)
system.cpu.branchPred.btb.mispredict::NoBranch            0                       # Number of BTB mispredictions. No target found or target wrong. (Count)
system.cpu.branchPred.btb.mispredict::Return            0                       # Number of BTB mispredictions. No target found or target wrong. (Count)
system.cpu.branchPred.btb.mispredict::CallDirect            0                       # Number of BTB mispredictions. No target found or target wrong. (Count)
system.cpu.branchPred.btb.mispredict::CallIndirect            0                       # Number of BTB mispredictions. No target found or target wrong. (Count)
system.cpu.branchPred.btb.mispredict::DirectCond            0                       # Number of BTB mispredictions. No target found or target wrong. (Count)
system.cpu.branchPred.btb.mispredict::DirectUncond            0                       # Number of BTB mispredictions. No target found or target wrong. (Count)
system.cpu.branchPred.btb.mispredict::IndirectCond            0                       # Number of BTB mispredictions. No target found or target wrong. (Count)
system.cpu.branchPred.btb.mispredict::IndirectUncond            0                       # Number of BTB mispredictions. No target found or target wrong. (Count)
system.cpu.branchPred.btb.mispredict::total            0                       # Number of BTB mispredictions. No target found or target wrong. (Count)
system.cpu.branchPred.btb.power_state.pwrStateResidencyTicks::UNDEFINED 168318183500                       # Cumulative time (in ticks) in various power states (Tick)
system.cpu.branchPred.indirectBranchPred.lookups            0                       # Number of lookups (Count)
system.cpu.branchPred.indirectBranchPred.hits            0                       # Number of hits of a tag (Count)
system.cpu.branchPred.indirectBranchPred.misses            0                       # Number of misses (Count)
system.cpu.branchPred.indirectBranchPred.targetRecords            0                       # Number of targets that where recorded/installed in the cache (Count)
system.cpu.branchPred.indirectBranchPred.indirectRecords            0                       # Number of indirect branches/calls recorded in the indirect hist (Count)
system.cpu.branchPred.indirectBranchPred.speculativeOverflows            0                       # Number of times more than the allowed capacity for speculative branches/calls where in flight and destroy the path history (Count)
system.cpu.branchPred.loop_predictor.used            0                       # Number of times the loop predictor is the provider. (Count)
system.cpu.branchPred.loop_predictor.correct            0                       # Number of times the loop predictor is the provider and the prediction is correct (Count)
system.cpu.branchPred.loop_predictor.wrong            0                       # Number of times the loop predictor is the provider and the prediction is wrong (Count)
system.cpu.branchPred.ras.pushes                    0                       # Number of times a PC was pushed onto the RAS (Count)
system.cpu.branchPred.ras.pops                      0                       # Number of times a PC was poped from the RAS (Count)
system.cpu.branchPred.ras.squashes                  0                       # Number of times the stack operation was squashed due to wrong speculation. (Count)
system.cpu.branchPred.ras.used                      0                       # Number of times the RAS is the provider (Count)
system.cpu.branchPred.ras.correct                   0                       # Number of times the RAS is the provider and the prediction is correct (Count)
system.cpu.branchPred.ras.incorrect                 0                       # Number of times the RAS is the provider and the prediction is wrong (Count)
system.cpu.branchPred.statistical_corrector.correct            0                       # Number of time the SC predictor is the provider and the prediction is correct (Count)
system.cpu.branchPred.statistical_corrector.wrong            0                       # Number of time the SC predictor is the provider and the prediction is wrong (Count)
system.cpu.branchPred.tage.longestMatchProviderCorrect            0                       # Number of times TAGE Longest Match is the provider and the prediction is correct (Count)
system.cpu.branchPred.tage.altMatchProviderCorrect            0                       # Number of times TAGE Alt Match is the provider and the prediction is correct (Count)
system.cpu.branchPred.tage.bimodalAltMatchProviderCorrect            0                       # Number of times TAGE Alt Match is the bimodal and it is the provider and the prediction is correct (Count)
system.cpu.branchPred.tage.bimodalProviderCorrect            0                       # Number of times there are no hits on the TAGE tables and the bimodal prediction is correct (Count)
system.cpu.branchPred.tage.longestMatchProviderWrong            0                       # Number of times TAGE Longest Match is the provider and the prediction is wrong (Count)
system.cpu.branchPred.tage.altMatchProviderWrong            0                       # Number of times TAGE Alt Match is the provider and the prediction is wrong (Count)
system.cpu.branchPred.tage.bimodalAltMatchProviderWrong            0                       # Number of times TAGE Alt Match is the bimodal and it is the provider and the prediction is wrong (Count)
system.cpu.branchPred.tage.bimodalProviderWrong            0                       # Number of times there are no hits on the TAGE tables and the bimodal prediction is wrong (Count)
system.cpu.branchPred.tage.altMatchProviderWouldHaveHit            0                       # Number of times TAGE Longest Match is the provider, the prediction is wrong and Alt Match prediction was correct (Count)
system.cpu.branchPred.tage.longestMatchProviderWouldHaveHit            0                       # Number of times TAGE Alt Match is the provider, the prediction is wrong and Longest Match prediction was correct (Count)
system.cpu.branchPred.tage.longestMatchProvider::0            0                       # TAGE provider for longest match (Count)
system.cpu.branchPred.tage.longestMatchProvider::1            0                       # TAGE provider for longest match (Count)
system.cpu.branchPred.tage.longestMatchProvider::2            0                       # TAGE provider for longest match (Count)
system.cpu.branchPred.tage.longestMatchProvider::3            0                       # TAGE provider for longest match (Count)
system.cpu.branchPred.tage.longestMatchProvider::4            0                       # TAGE provider for longest match (Count)
system.cpu.branchPred.tage.longestMatchProvider::5            0                       # TAGE provider for longest match (Count)
system.cpu.branchPred.tage.longestMatchProvider::6            0                       # TAGE provider for longest match (Count)
system.cpu.branchPred.tage.longestMatchProvider::7            0                       # TAGE provider for longest match (Count)
system.cpu.branchPred.tage.longestMatchProvider::8            0                       # TAGE provider for longest match (Count)
system.cpu.branchPred.tage.longestMatchProvider::9            0                       # TAGE provider for longest match (Count)
system.cpu.branchPred.tage.longestMatchProvider::10            0                       # TAGE provider for longest match (Count)
system.cpu.branchPred.tage.longestMatchProvider::11            0                       # TAGE provider for longest match (Count)
system.cpu.branchPred.tage.longestMatchProvider::12            0                       # TAGE provider for longest match (Count)
system.cpu.branchPred.tage.longestMatchProvider::13            0                       # TAGE provider for longest match (Count)
system.cpu.branchPred.tage.longestMatchProvider::14            0                       # TAGE provider for longest match (Count)
system.cpu.branchPred.tage.longestMatchProvider::15            0                       # TAGE provider for longest match (Count)
system.cpu.branchPred.tage.longestMatchProvider::16            0                       # TAGE provider for longest match (Count)
system.cpu.branchPred.tage.longestMatchProvider::17            0                       # TAGE provider for longest match (Count)
system.cpu.branchPred.tage.longestMatchProvider::18            0                       # TAGE provider for longest match (Count)
system.cpu.branchPred.tage.longestMatchProvider::19            0                       # TAGE provider for longest match (Count)
system.cpu.branchPred.tage.longestMatchProvider::20            0                       # TAGE provider for longest match (Count)
system.cpu.branchPred.tage.longestMatchProvider::21            0                       # TAGE provider for longest match (Count)
system.cpu.branchPred.tage.longestMatchProvider::22            0                       # TAGE provider for longest match (Count)
system.cpu.branchPred.tage.longestMatchProvider::23            0                       # TAGE provider for longest match (Count)
system.cpu.branchPred.tage.longestMatchProvider::24            0                       # TAGE provider for longest match (Count)
system.cpu.branchPred.tage.longestMatchProvider::25            0                       # TAGE provider for longest match (Count)
system.cpu.branchPred.tage.longestMatchProvider::26            0                       # TAGE provider for longest match (Count)
system.cpu.branchPred.tage.longestMatchProvider::27            0                       # TAGE provider for longest match (Count)
system.cpu.branchPred.tage.longestMatchProvider::28            0                       # TAGE provider for longest match (Count)
system.cpu.branchPred.tage.longestMatchProvider::29            0                       # TAGE provider for longest match (Count)
system.cpu.branchPred.tage.longestMatchProvider::30            0                       # TAGE provider for longest match (Count)
system.cpu.branchPred.tage.altMatchProvider::0            0                       # TAGE provider for alt match (Count)
system.cpu.branchPred.tage.altMatchProvider::1            0                       # TAGE provider for alt match (Count)
system.cpu.branchPred.tage.altMatchProvider::2            0                       # TAGE provider for alt match (Count)
system.cpu.branchPred.tage.altMatchProvider::3            0                       # TAGE provider for alt match (Count)
system.cpu.branchPred.tage.altMatchProvider::4            0                       # TAGE provider for alt match (Count)
system.cpu.branchPred.tage.altMatchProvider::5            0                       # TAGE provider for alt match (Count)
system.cpu.branchPred.tage.altMatchProvider::6            0                       # TAGE provider for alt match (Count)
system.cpu.branchPred.tage.altMatchProvider::7            0                       # TAGE provider for alt match (Count)
system.cpu.branchPred.tage.altMatchProvider::8            0                       # TAGE provider for alt match (Count)
system.cpu.branchPred.tage.altMatchProvider::9            0                       # TAGE provider for alt match (Count)
system.cpu.branchPred.tage.altMatchProvider::10            0                       # TAGE provider for alt match (Count)
system.cpu.branchPred.tage.altMatchProvider::11            0                       # TAGE provider for alt match (Count)
system.cpu.branchPred.tage.altMatchProvider::12            0                       # TAGE provider for alt match (Count)
system.cpu.branchPred.tage.altMatchProvider::13            0                       # TAGE provider for alt match (Count)
system.cpu.branchPred.tage.altMatchProvider::14            0                       # TAGE provider for alt match (Count)
system.cpu.branchPred.tage.altMatchProvider::15            0                       # TAGE provider for alt match (Count)
system.cpu.branchPred.tage.altMatchProvider::16            0                       # TAGE provider for alt match (Count)
system.cpu.branchPred.tage.altMatchProvider::17            0                       # TAGE provider for alt match (Count)
system.cpu.branchPred.tage.altMatchProvider::18            0                       # TAGE provider for alt match (Count)
system.cpu.branchPred.tage.altMatchProvider::19            0                       # TAGE provider for alt match (Count)
system.cpu.branchPred.tage.altMatchProvider::20            0                       # TAGE provider for alt match (Count)
system.cpu.branchPred.tage.altMatchProvider::21            0                       # TAGE provider for alt match (Count)
system.cpu.branchPred.tage.altMatchProvider::22            0                       # TAGE provider for alt match (Count)
system.cpu.branchPred.tage.altMatchProvider::23            0                       # TAGE provider for alt match (Count)
system.cpu.branchPred.tage.altMatchProvider::24            0                       # TAGE provider for alt match (Count)
system.cpu.branchPred.tage.altMatchProvider::25            0                       # TAGE provider for alt match (Count)
system.cpu.branchPred.tage.altMatchProvider::26            0                       # TAGE provider for alt match (Count)
system.cpu.branchPred.tage.altMatchProvider::27            0                       # TAGE provider for alt match (Count)
system.cpu.branchPred.tage.altMatchProvider::28            0                       # TAGE provider for alt match (Count)
system.cpu.branchPred.tage.altMatchProvider::29            0                       # TAGE provider for alt match (Count)
system.cpu.branchPred.tage.altMatchProvider::30            0                       # TAGE provider for alt match (Count)
system.cpu.commitStats0.numOps                      0                       # Number of ops (including micro ops) committed (thread level) (Count)
system.cpu.commitStats0.numInstsNotNOP              0                       # Number of instructions committed excluding NOPs or prefetches (Count)
system.cpu.commitStats0.numOpsNotNOP                0                       # Number of Ops (including micro ops) Simulated (Count)
system.cpu.commitStats0.cpi                       nan                       # CPI: cycles per instruction (thread level) ((Cycle/Count))
system.cpu.commitStats0.ipc                       nan                       # IPC: instructions per cycle (thread level) ((Count/Cycle))
system.cpu.commitStats0.numMemRefs                  0                       # Number of memory references committed (Count)
system.cpu.commitStats0.numFpInsts                  0                       # Number of float instructions (Count)
system.cpu.commitStats0.numIntInsts                 0                       # Number of integer instructions (Count)
system.cpu.commitStats0.numLoadInsts                0                       # Number of load instructions (Count)
system.cpu.commitStats0.numStoreInsts               0                       # Number of store instructions (Count)
system.cpu.commitStats0.numVecInsts                 0                       # Number of vector instructions (Count)
system.cpu.commitStats0.committedInstType::No_OpClass            0                       # Class of committed instruction. (Count)
system.cpu.commitStats0.committedInstType::IntAlu            0                       # Class of committed instruction. (Count)
system.cpu.commitStats0.committedInstType::IntMult            0                       # Class of committed instruction. (Count)
system.cpu.commitStats0.committedInstType::IntDiv            0                       # Class of committed instruction. (Count)
system.cpu.commitStats0.committedInstType::FloatAdd            0                       # Class of committed instruction. (Count)
system.cpu.commitStats0.committedInstType::FloatCmp            0                       # Class of committed instruction. (Count)
system.cpu.commitStats0.committedInstType::FloatCvt            0                       # Class of committed instruction. (Count)
system.cpu.commitStats0.committedInstType::FloatMult            0                       # Class of committed instruction. (Count)
system.cpu.commitStats0.committedInstType::FloatMultAcc            0                       # Class of committed instruction. (Count)
system.cpu.commitStats0.committedInstType::FloatDiv            0                       # Class of committed instruction. (Count)
system.cpu.commitStats0.committedInstType::FloatMisc            0                       # Class of committed instruction. (Count)
system.cpu.commitStats0.committedInstType::FloatSqrt            0                       # Class of committed instruction. (Count)
system.cpu.commitStats0.committedInstType::SimdAdd            0                       # Class of committed instruction. (Count)
system.cpu.commitStats0.committedInstType::SimdAddAcc            0                       # Class of committed instruction. (Count)
system.cpu.commitStats0.committedInstType::SimdAlu            0                       # Class of committed instruction. (Count)
system.cpu.commitStats0.committedInstType::SimdCmp            0                       # Class of committed instruction. (Count)
system.cpu.commitStats0.committedInstType::SimdCvt            0                       # Class of committed instruction. (Count)
system.cpu.commitStats0.committedInstType::SimdMisc            0                       # Class of committed instruction. (Count)
system.cpu.commitStats0.committedInstType::SimdMult            0                       # Class of committed instruction. (Count)
system.cpu.commitStats0.committedInstType::SimdMultAcc            0                       # Class of committed instruction. (Count)
system.cpu.commitStats0.committedInstType::SimdMatMultAcc            0                       # Class of committed instruction. (Count)
system.cpu.commitStats0.committedInstType::SimdShift            0                       # Class of committed instruction. (Count)
system.cpu.commitStats0.committedInstType::SimdShiftAcc            0                       # Class of committed instruction. (Count)
system.cpu.commitStats0.committedInstType::SimdDiv            0                       # Class of committed instruction. (Count)
system.cpu.commitStats0.committedInstType::SimdSqrt            0                       # Class of committed instruction. (Count)
system.cpu.commitStats0.committedInstType::SimdFloatAdd            0                       # Class of committed instruction. (Count)
system.cpu.commitStats0.committedInstType::SimdFloatAlu            0                       # Class of committed instruction. (Count)
system.cpu.commitStats0.committedInstType::SimdFloatCmp            0                       # Class of committed instruction. (Count)
system.cpu.commitStats0.committedInstType::SimdFloatCvt            0                       # Class of committed instruction. (Count)
system.cpu.commitStats0.committedInstType::SimdFloatDiv            0                       # Class of committed instruction. (Count)
system.cpu.commitStats0.committedInstType::SimdFloatMisc            0                       # Class of committed instruction. (Count)
system.cpu.commitStats0.committedInstType::SimdFloatMult            0                       # Class of committed instruction. (Count)
system.cpu.commitStats0.committedInstType::SimdFloatMultAcc            0                       # Class of committed instruction. (Count)
system.cpu.commitStats0.committedInstType::SimdFloatMatMultAcc            0                       # Class of committed instruction. (Count)
system.cpu.commitStats0.committedInstType::SimdFloatSqrt            0                       # Class of committed instruction. (Count)
system.cpu.commitStats0.committedInstType::SimdReduceAdd            0                       # Class of committed instruction. (Count)
system.cpu.commitStats0.committedInstType::SimdReduceAlu            0                       # Class of committed instruction. (Count)
system.cpu.commitStats0.committedInstType::SimdReduceCmp            0                       # Class of committed instruction. (Count)
system.cpu.commitStats0.committedInstType::SimdFloatReduceAdd            0                       # Class of committed instruction. (Count)
system.cpu.commitStats0.committedInstType::SimdFloatReduceCmp            0                       # Class of committed instruction. (Count)
system.cpu.commitStats0.committedInstType::SimdAes            0                       # Class of committed instruction. (Count)
system.cpu.commitStats0.committedInstType::SimdAesMix            0                       # Class of committed instruction. (Count)
system.cpu.commitStats0.committedInstType::SimdSha1Hash            0                       # Class of committed instruction. (Count)
system.cpu.commitStats0.committedInstType::SimdSha1Hash2            0                       # Class of committed instruction. (Count)
system.cpu.commitStats0.committedInstType::SimdSha256Hash            0                       # Class of committed instruction. (Count)
system.cpu.commitStats0.committedInstType::SimdSha256Hash2            0                       # Class of committed instruction. (Count)
system.cpu.commitStats0.committedInstType::SimdShaSigma2            0                       # Class of committed instruction. (Count)
system.cpu.commitStats0.committedInstType::SimdShaSigma3            0                       # Class of committed instruction. (Count)
system.cpu.commitStats0.committedInstType::SimdPredAlu            0                       # Class of committed instruction. (Count)
system.cpu.commitStats0.committedInstType::Matrix            0                       # Class of committed instruction. (Count)
system.cpu.commitStats0.committedInstType::MatrixMov            0                       # Class of committed instruction. (Count)
system.cpu.commitStats0.committedInstType::MatrixOP            0                       # Class of committed instruction. (Count)
system.cpu.commitStats0.committedInstType::MemRead            0                       # Class of committed instruction. (Count)
system.cpu.commitStats0.committedInstType::MemWrite            0                       # Class of committed instruction. (Count)
system.cpu.commitStats0.committedInstType::FloatMemRead            0                       # Class of committed instruction. (Count)
system.cpu.commitStats0.committedInstType::FloatMemWrite            0                       # Class of committed instruction. (Count)
system.cpu.commitStats0.committedInstType::IprAccess            0                       # Class of committed instruction. (Count)
system.cpu.commitStats0.committedInstType::InstPrefetch            0                       # Class of committed instruction. (Count)
system.cpu.commitStats0.committedInstType::SimdUnitStrideLoad            0                       # Class of committed instruction. (Count)
system.cpu.commitStats0.committedInstType::SimdUnitStrideStore            0                       # Class of committed instruction. (Count)
system.cpu.commitStats0.committedInstType::SimdUnitStrideMaskLoad            0                       # Class of committed instruction. (Count)
system.cpu.commitStats0.committedInstType::SimdUnitStrideMaskStore            0                       # Class of committed instruction. (Count)
system.cpu.commitStats0.committedInstType::SimdStridedLoad            0                       # Class of committed instruction. (Count)
system.cpu.commitStats0.committedInstType::SimdStridedStore            0                       # Class of committed instruction. (Count)
system.cpu.commitStats0.committedInstType::SimdIndexedLoad            0                       # Class of committed instruction. (Count)
system.cpu.commitStats0.committedInstType::SimdIndexedStore            0                       # Class of committed instruction. (Count)
system.cpu.commitStats0.committedInstType::SimdWholeRegisterLoad            0                       # Class of committed instruction. (Count)
system.cpu.commitStats0.committedInstType::SimdWholeRegisterStore            0                       # Class of committed instruction. (Count)
system.cpu.commitStats0.committedInstType::SimdUnitStrideFaultOnlyFirstLoad            0                       # Class of committed instruction. (Count)
system.cpu.commitStats0.committedInstType::SimdUnitStrideSegmentedLoad            0                       # Class of committed instruction. (Count)
system.cpu.commitStats0.committedInstType::SimdUnitStrideSegmentedStore            0                       # Class of committed instruction. (Count)
system.cpu.commitStats0.committedInstType::SimdExt            0                       # Class of committed instruction. (Count)
system.cpu.commitStats0.committedInstType::SimdFloatExt            0                       # Class of committed instruction. (Count)
system.cpu.commitStats0.committedInstType::SimdConfig            0                       # Class of committed instruction. (Count)
system.cpu.commitStats0.committedInstType::total            0                       # Class of committed instruction. (Count)
system.cpu.dcache.demandHits::switch_cpus_1.data     20783526                       # number of demand (read+write) hits (Count)
system.cpu.dcache.demandHits::total          20783526                       # number of demand (read+write) hits (Count)
system.cpu.dcache.overallHits::switch_cpus_1.data     20783526                       # number of overall hits (Count)
system.cpu.dcache.overallHits::total         20783526                       # number of overall hits (Count)
system.cpu.dcache.demandMisses::switch_cpus_1.data         4012                       # number of demand (read+write) misses (Count)
system.cpu.dcache.demandMisses::total            4012                       # number of demand (read+write) misses (Count)
system.cpu.dcache.overallMisses::switch_cpus_1.data         4012                       # number of overall misses (Count)
system.cpu.dcache.overallMisses::total           4012                       # number of overall misses (Count)
system.cpu.dcache.demandMissLatency::switch_cpus_1.data    178221500                       # number of demand (read+write) miss ticks (Tick)
system.cpu.dcache.demandMissLatency::total    178221500                       # number of demand (read+write) miss ticks (Tick)
system.cpu.dcache.overallMissLatency::switch_cpus_1.data    178221500                       # number of overall miss ticks (Tick)
system.cpu.dcache.overallMissLatency::total    178221500                       # number of overall miss ticks (Tick)
system.cpu.dcache.demandAccesses::switch_cpus_1.data     20787538                       # number of demand (read+write) accesses (Count)
system.cpu.dcache.demandAccesses::total      20787538                       # number of demand (read+write) accesses (Count)
system.cpu.dcache.overallAccesses::switch_cpus_1.data     20787538                       # number of overall (read+write) accesses (Count)
system.cpu.dcache.overallAccesses::total     20787538                       # number of overall (read+write) accesses (Count)
system.cpu.dcache.demandMissRate::switch_cpus_1.data     0.000193                       # miss rate for demand accesses (Ratio)
system.cpu.dcache.demandMissRate::total      0.000193                       # miss rate for demand accesses (Ratio)
system.cpu.dcache.overallMissRate::switch_cpus_1.data     0.000193                       # miss rate for overall accesses (Ratio)
system.cpu.dcache.overallMissRate::total     0.000193                       # miss rate for overall accesses (Ratio)
system.cpu.dcache.demandAvgMissLatency::switch_cpus_1.data 44422.108674                       # average overall miss latency in ticks ((Tick/Count))
system.cpu.dcache.demandAvgMissLatency::total 44422.108674                       # average overall miss latency in ticks ((Tick/Count))
system.cpu.dcache.overallAvgMissLatency::switch_cpus_1.data 44422.108674                       # average overall miss latency ((Tick/Count))
system.cpu.dcache.overallAvgMissLatency::total 44422.108674                       # average overall miss latency ((Tick/Count))
system.cpu.dcache.blockedCycles::no_mshrs            0                       # number of cycles access was blocked (Cycle)
system.cpu.dcache.blockedCycles::no_targets            0                       # number of cycles access was blocked (Cycle)
system.cpu.dcache.blockedCauses::no_mshrs            0                       # number of times access was blocked (Count)
system.cpu.dcache.blockedCauses::no_targets            0                       # number of times access was blocked (Count)
system.cpu.dcache.avgBlocked::no_mshrs            nan                       # average number of cycles each access was blocked ((Cycle/Count))
system.cpu.dcache.avgBlocked::no_targets          nan                       # average number of cycles each access was blocked ((Cycle/Count))
system.cpu.dcache.writebacks::writebacks         3137                       # number of writebacks (Count)
system.cpu.dcache.writebacks::total              3137                       # number of writebacks (Count)
system.cpu.dcache.demandMshrHits::switch_cpus_1.data          311                       # number of demand (read+write) MSHR hits (Count)
system.cpu.dcache.demandMshrHits::total           311                       # number of demand (read+write) MSHR hits (Count)
system.cpu.dcache.overallMshrHits::switch_cpus_1.data          311                       # number of overall MSHR hits (Count)
system.cpu.dcache.overallMshrHits::total          311                       # number of overall MSHR hits (Count)
system.cpu.dcache.demandMshrMisses::switch_cpus_1.data         3701                       # number of demand (read+write) MSHR misses (Count)
system.cpu.dcache.demandMshrMisses::total         3701                       # number of demand (read+write) MSHR misses (Count)
system.cpu.dcache.overallMshrMisses::switch_cpus_1.data         3701                       # number of overall MSHR misses (Count)
system.cpu.dcache.overallMshrMisses::total         3701                       # number of overall MSHR misses (Count)
system.cpu.dcache.demandMshrMissLatency::switch_cpus_1.data    169785500                       # number of demand (read+write) MSHR miss ticks (Tick)
system.cpu.dcache.demandMshrMissLatency::total    169785500                       # number of demand (read+write) MSHR miss ticks (Tick)
system.cpu.dcache.overallMshrMissLatency::switch_cpus_1.data    169785500                       # number of overall MSHR miss ticks (Tick)
system.cpu.dcache.overallMshrMissLatency::total    169785500                       # number of overall MSHR miss ticks (Tick)
system.cpu.dcache.demandMshrMissRate::switch_cpus_1.data     0.000178                       # mshr miss ratio for demand accesses (Ratio)
system.cpu.dcache.demandMshrMissRate::total     0.000178                       # mshr miss ratio for demand accesses (Ratio)
system.cpu.dcache.overallMshrMissRate::switch_cpus_1.data     0.000178                       # mshr miss ratio for overall accesses (Ratio)
system.cpu.dcache.overallMshrMissRate::total     0.000178                       # mshr miss ratio for overall accesses (Ratio)
system.cpu.dcache.demandAvgMshrMissLatency::switch_cpus_1.data 45875.574169                       # average overall mshr miss latency ((Tick/Count))
system.cpu.dcache.demandAvgMshrMissLatency::total 45875.574169                       # average overall mshr miss latency ((Tick/Count))
system.cpu.dcache.overallAvgMshrMissLatency::switch_cpus_1.data 45875.574169                       # average overall mshr miss latency ((Tick/Count))
system.cpu.dcache.overallAvgMshrMissLatency::total 45875.574169                       # average overall mshr miss latency ((Tick/Count))
system.cpu.dcache.replacements                   3701                       # number of replacements (Count)
system.cpu.dcache.ReadReq.hits::switch_cpus_1.data     11936357                       # number of ReadReq hits (Count)
system.cpu.dcache.ReadReq.hits::total        11936357                       # number of ReadReq hits (Count)
system.cpu.dcache.ReadReq.misses::switch_cpus_1.data         1328                       # number of ReadReq misses (Count)
system.cpu.dcache.ReadReq.misses::total          1328                       # number of ReadReq misses (Count)
system.cpu.dcache.ReadReq.missLatency::switch_cpus_1.data     13216500                       # number of ReadReq miss ticks (Tick)
system.cpu.dcache.ReadReq.missLatency::total     13216500                       # number of ReadReq miss ticks (Tick)
system.cpu.dcache.ReadReq.accesses::switch_cpus_1.data     11937685                       # number of ReadReq accesses(hits+misses) (Count)
system.cpu.dcache.ReadReq.accesses::total     11937685                       # number of ReadReq accesses(hits+misses) (Count)
system.cpu.dcache.ReadReq.missRate::switch_cpus_1.data     0.000111                       # miss rate for ReadReq accesses (Ratio)
system.cpu.dcache.ReadReq.missRate::total     0.000111                       # miss rate for ReadReq accesses (Ratio)
system.cpu.dcache.ReadReq.avgMissLatency::switch_cpus_1.data  9952.183735                       # average ReadReq miss latency ((Tick/Count))
system.cpu.dcache.ReadReq.avgMissLatency::total  9952.183735                       # average ReadReq miss latency ((Tick/Count))
system.cpu.dcache.ReadReq.mshrHits::switch_cpus_1.data          311                       # number of ReadReq MSHR hits (Count)
system.cpu.dcache.ReadReq.mshrHits::total          311                       # number of ReadReq MSHR hits (Count)
system.cpu.dcache.ReadReq.mshrMisses::switch_cpus_1.data         1017                       # number of ReadReq MSHR misses (Count)
system.cpu.dcache.ReadReq.mshrMisses::total         1017                       # number of ReadReq MSHR misses (Count)
system.cpu.dcache.ReadReq.mshrMissLatency::switch_cpus_1.data      8806500                       # number of ReadReq MSHR miss ticks (Tick)
system.cpu.dcache.ReadReq.mshrMissLatency::total      8806500                       # number of ReadReq MSHR miss ticks (Tick)
system.cpu.dcache.ReadReq.mshrMissRate::switch_cpus_1.data     0.000085                       # mshr miss rate for ReadReq accesses (Ratio)
system.cpu.dcache.ReadReq.mshrMissRate::total     0.000085                       # mshr miss rate for ReadReq accesses (Ratio)
system.cpu.dcache.ReadReq.avgMshrMissLatency::switch_cpus_1.data  8659.292035                       # average ReadReq mshr miss latency ((Tick/Count))
system.cpu.dcache.ReadReq.avgMshrMissLatency::total  8659.292035                       # average ReadReq mshr miss latency ((Tick/Count))
system.cpu.dcache.WriteReq.hits::switch_cpus_1.data      8847169                       # number of WriteReq hits (Count)
system.cpu.dcache.WriteReq.hits::total        8847169                       # number of WriteReq hits (Count)
system.cpu.dcache.WriteReq.misses::switch_cpus_1.data         2684                       # number of WriteReq misses (Count)
system.cpu.dcache.WriteReq.misses::total         2684                       # number of WriteReq misses (Count)
system.cpu.dcache.WriteReq.missLatency::switch_cpus_1.data    165005000                       # number of WriteReq miss ticks (Tick)
system.cpu.dcache.WriteReq.missLatency::total    165005000                       # number of WriteReq miss ticks (Tick)
system.cpu.dcache.WriteReq.accesses::switch_cpus_1.data      8849853                       # number of WriteReq accesses(hits+misses) (Count)
system.cpu.dcache.WriteReq.accesses::total      8849853                       # number of WriteReq accesses(hits+misses) (Count)
system.cpu.dcache.WriteReq.missRate::switch_cpus_1.data     0.000303                       # miss rate for WriteReq accesses (Ratio)
system.cpu.dcache.WriteReq.missRate::total     0.000303                       # miss rate for WriteReq accesses (Ratio)
system.cpu.dcache.WriteReq.avgMissLatency::switch_cpus_1.data 61477.272727                       # average WriteReq miss latency ((Tick/Count))
system.cpu.dcache.WriteReq.avgMissLatency::total 61477.272727                       # average WriteReq miss latency ((Tick/Count))
system.cpu.dcache.WriteReq.mshrMisses::switch_cpus_1.data         2684                       # number of WriteReq MSHR misses (Count)
system.cpu.dcache.WriteReq.mshrMisses::total         2684                       # number of WriteReq MSHR misses (Count)
system.cpu.dcache.WriteReq.mshrMissLatency::switch_cpus_1.data    160979000                       # number of WriteReq MSHR miss ticks (Tick)
system.cpu.dcache.WriteReq.mshrMissLatency::total    160979000                       # number of WriteReq MSHR miss ticks (Tick)
system.cpu.dcache.WriteReq.mshrMissRate::switch_cpus_1.data     0.000303                       # mshr miss rate for WriteReq accesses (Ratio)
system.cpu.dcache.WriteReq.mshrMissRate::total     0.000303                       # mshr miss rate for WriteReq accesses (Ratio)
system.cpu.dcache.WriteReq.avgMshrMissLatency::switch_cpus_1.data 59977.272727                       # average WriteReq mshr miss latency ((Tick/Count))
system.cpu.dcache.WriteReq.avgMshrMissLatency::total 59977.272727                       # average WriteReq mshr miss latency ((Tick/Count))
system.cpu.dcache.power_state.pwrStateResidencyTicks::UNDEFINED 168318183500                       # Cumulative time (in ticks) in various power states (Tick)
system.cpu.dcache.tags.tagsInUse                  512                       # Average ticks per tags in use ((Tick/Count))
system.cpu.dcache.tags.totalRefs             33070744                       # Total number of references to valid blocks. (Count)
system.cpu.dcache.tags.sampledRefs               4213                       # Sample count of references to valid blocks. (Count)
system.cpu.dcache.tags.avgRefs            7849.690007                       # Average number of references to valid blocks. ((Count/Count))
system.cpu.dcache.tags.warmupTick                   0                       # The tick when the warmup percentage was hit. (Tick)
system.cpu.dcache.tags.occupancies::switch_cpus.data   172.010107                       # Average occupied blocks per tick, per requestor ((Count/Tick))
system.cpu.dcache.tags.occupancies::switch_cpus_1.data   339.989893                       # Average occupied blocks per tick, per requestor ((Count/Tick))
system.cpu.dcache.tags.avgOccs::switch_cpus.data     0.335957                       # Average percentage of cache occupancy ((Ratio/Tick))
system.cpu.dcache.tags.avgOccs::switch_cpus_1.data     0.664043                       # Average percentage of cache occupancy ((Ratio/Tick))
system.cpu.dcache.tags.avgOccs::total               1                       # Average percentage of cache occupancy ((Ratio/Tick))
system.cpu.dcache.tags.occupanciesTaskId::1024          512                       # Occupied blocks per task id (Count)
system.cpu.dcache.tags.ageTaskId_1024::0            1                       # Occupied blocks per task id, per block age (Count)
system.cpu.dcache.tags.ageTaskId_1024::1            6                       # Occupied blocks per task id, per block age (Count)
system.cpu.dcache.tags.ageTaskId_1024::2           74                       # Occupied blocks per task id, per block age (Count)
system.cpu.dcache.tags.ageTaskId_1024::3          310                       # Occupied blocks per task id, per block age (Count)
system.cpu.dcache.tags.ageTaskId_1024::4          121                       # Occupied blocks per task id, per block age (Count)
system.cpu.dcache.tags.ratioOccsTaskId::1024            1                       # Ratio of occupied blocks and all blocks, per task id (Ratio)
system.cpu.dcache.tags.tagAccesses           41578777                       # Number of tag accesses (Count)
system.cpu.dcache.tags.dataAccesses          41578777                       # Number of data accesses (Count)
system.cpu.dcache.tags.power_state.pwrStateResidencyTicks::UNDEFINED 168318183500                       # Cumulative time (in ticks) in various power states (Tick)
system.cpu.dtb_walker_cache.blockedCycles::no_mshrs            0                       # number of cycles access was blocked (Cycle)
system.cpu.dtb_walker_cache.blockedCycles::no_targets            0                       # number of cycles access was blocked (Cycle)
system.cpu.dtb_walker_cache.blockedCauses::no_mshrs            0                       # number of times access was blocked (Count)
system.cpu.dtb_walker_cache.blockedCauses::no_targets            0                       # number of times access was blocked (Count)
system.cpu.dtb_walker_cache.avgBlocked::no_mshrs          nan                       # average number of cycles each access was blocked ((Cycle/Count))
system.cpu.dtb_walker_cache.avgBlocked::no_targets          nan                       # average number of cycles each access was blocked ((Cycle/Count))
system.cpu.dtb_walker_cache.replacements            0                       # number of replacements (Count)
system.cpu.dtb_walker_cache.power_state.pwrStateResidencyTicks::UNDEFINED 168318183500                       # Cumulative time (in ticks) in various power states (Tick)
system.cpu.dtb_walker_cache.tags.tagsInUse            0                       # Average ticks per tags in use ((Tick/Count))
system.cpu.dtb_walker_cache.tags.totalRefs            0                       # Total number of references to valid blocks. (Count)
system.cpu.dtb_walker_cache.tags.sampledRefs            0                       # Sample count of references to valid blocks. (Count)
system.cpu.dtb_walker_cache.tags.avgRefs          nan                       # Average number of references to valid blocks. ((Count/Count))
system.cpu.dtb_walker_cache.tags.warmupTick            0                       # The tick when the warmup percentage was hit. (Tick)
system.cpu.dtb_walker_cache.tags.tagAccesses            0                       # Number of tag accesses (Count)
system.cpu.dtb_walker_cache.tags.dataAccesses            0                       # Number of data accesses (Count)
system.cpu.dtb_walker_cache.tags.power_state.pwrStateResidencyTicks::UNDEFINED 168318183500                       # Cumulative time (in ticks) in various power states (Tick)
system.cpu.exec_context.thread_0.numMatAluAccesses            0                       # Number of matrix alu accesses (Count)
system.cpu.exec_context.thread_0.numCallsReturns            0                       # Number of times a function call or return occured (Count)
system.cpu.exec_context.thread_0.numMatInsts            0                       # Number of matrix instructions (Count)
system.cpu.exec_context.thread_0.numIdleCycles            0                       # Number of idle cycles (Cycle)
system.cpu.exec_context.thread_0.numBusyCycles            0                       # Number of busy cycles (Cycle)
system.cpu.exec_context.thread_0.notIdleFraction            1                       # Percentage of non-idle cycles (Ratio)
system.cpu.exec_context.thread_0.idleFraction            0                       # Percentage of idle cycles (Ratio)
system.cpu.executeStats0.numInsts                   0                       # Number of executed instructions (Count)
system.cpu.executeStats0.numNop                     0                       # Number of nop insts executed (Count)
system.cpu.executeStats0.numBranches                0                       # Number of branches executed (Count)
system.cpu.executeStats0.numLoadInsts               0                       # Number of load instructions executed (Count)
system.cpu.executeStats0.numStoreInsts              0                       # Number of stores executed (Count)
system.cpu.executeStats0.instRate                 nan                       # Inst execution rate ((Count/Cycle))
system.cpu.executeStats0.numFpRegWrites             0                       # Number of times the floating registers were written (Count)
system.cpu.executeStats0.numMemRefs                 0                       # Number of memory refs (Count)
system.cpu.executeStats0.numVecAluAccesses            0                       # Number of vector alu accesses (Count)
system.cpu.executeStats0.numDiscardedOps            0                       # Number of ops (including micro ops) which were discarded before commit (Count)
system.cpu.fetchStats0.numInsts                     0                       # Number of instructions fetched (thread level) (Count)
system.cpu.fetchStats0.numOps                       0                       # Number of ops (including micro ops) fetched (thread level) (Count)
system.cpu.fetchStats0.fetchRate                  nan                       # Number of inst fetches per cycle ((Count/Cycle))
system.cpu.fetchStats0.branchRate                 nan                       # Number of branch fetches per cycle (Ratio)
system.cpu.fetchStats0.numFetchSuspends             0                       # Number of times Execute suspended instruction fetching (Count)
system.cpu.icache.demandHits::switch_cpus_1.inst      7553207                       # number of demand (read+write) hits (Count)
system.cpu.icache.demandHits::total           7553207                       # number of demand (read+write) hits (Count)
system.cpu.icache.overallHits::switch_cpus_1.inst      7553207                       # number of overall hits (Count)
system.cpu.icache.overallHits::total          7553207                       # number of overall hits (Count)
system.cpu.icache.demandMisses::switch_cpus_1.inst        10910                       # number of demand (read+write) misses (Count)
system.cpu.icache.demandMisses::total           10910                       # number of demand (read+write) misses (Count)
system.cpu.icache.overallMisses::switch_cpus_1.inst        10910                       # number of overall misses (Count)
system.cpu.icache.overallMisses::total          10910                       # number of overall misses (Count)
system.cpu.icache.demandMissLatency::switch_cpus_1.inst     95876500                       # number of demand (read+write) miss ticks (Tick)
system.cpu.icache.demandMissLatency::total     95876500                       # number of demand (read+write) miss ticks (Tick)
system.cpu.icache.overallMissLatency::switch_cpus_1.inst     95876500                       # number of overall miss ticks (Tick)
system.cpu.icache.overallMissLatency::total     95876500                       # number of overall miss ticks (Tick)
system.cpu.icache.demandAccesses::switch_cpus_1.inst      7564117                       # number of demand (read+write) accesses (Count)
system.cpu.icache.demandAccesses::total       7564117                       # number of demand (read+write) accesses (Count)
system.cpu.icache.overallAccesses::switch_cpus_1.inst      7564117                       # number of overall (read+write) accesses (Count)
system.cpu.icache.overallAccesses::total      7564117                       # number of overall (read+write) accesses (Count)
system.cpu.icache.demandMissRate::switch_cpus_1.inst     0.001442                       # miss rate for demand accesses (Ratio)
system.cpu.icache.demandMissRate::total      0.001442                       # miss rate for demand accesses (Ratio)
system.cpu.icache.overallMissRate::switch_cpus_1.inst     0.001442                       # miss rate for overall accesses (Ratio)
system.cpu.icache.overallMissRate::total     0.001442                       # miss rate for overall accesses (Ratio)
system.cpu.icache.demandAvgMissLatency::switch_cpus_1.inst  8787.946838                       # average overall miss latency in ticks ((Tick/Count))
system.cpu.icache.demandAvgMissLatency::total  8787.946838                       # average overall miss latency in ticks ((Tick/Count))
system.cpu.icache.overallAvgMissLatency::switch_cpus_1.inst  8787.946838                       # average overall miss latency ((Tick/Count))
system.cpu.icache.overallAvgMissLatency::total  8787.946838                       # average overall miss latency ((Tick/Count))
system.cpu.icache.blockedCycles::no_mshrs            0                       # number of cycles access was blocked (Cycle)
system.cpu.icache.blockedCycles::no_targets            0                       # number of cycles access was blocked (Cycle)
system.cpu.icache.blockedCauses::no_mshrs            0                       # number of times access was blocked (Count)
system.cpu.icache.blockedCauses::no_targets            0                       # number of times access was blocked (Count)
system.cpu.icache.avgBlocked::no_mshrs            nan                       # average number of cycles each access was blocked ((Cycle/Count))
system.cpu.icache.avgBlocked::no_targets          nan                       # average number of cycles each access was blocked ((Cycle/Count))
system.cpu.icache.writebacks::writebacks        10904                       # number of writebacks (Count)
system.cpu.icache.writebacks::total             10904                       # number of writebacks (Count)
system.cpu.icache.demandMshrHits::switch_cpus_1.inst            6                       # number of demand (read+write) MSHR hits (Count)
system.cpu.icache.demandMshrHits::total             6                       # number of demand (read+write) MSHR hits (Count)
system.cpu.icache.overallMshrHits::switch_cpus_1.inst            6                       # number of overall MSHR hits (Count)
system.cpu.icache.overallMshrHits::total            6                       # number of overall MSHR hits (Count)
system.cpu.icache.demandMshrMisses::switch_cpus_1.inst        10904                       # number of demand (read+write) MSHR misses (Count)
system.cpu.icache.demandMshrMisses::total        10904                       # number of demand (read+write) MSHR misses (Count)
system.cpu.icache.overallMshrMisses::switch_cpus_1.inst        10904                       # number of overall MSHR misses (Count)
system.cpu.icache.overallMshrMisses::total        10904                       # number of overall MSHR misses (Count)
system.cpu.icache.demandMshrMissLatency::switch_cpus_1.inst     79246500                       # number of demand (read+write) MSHR miss ticks (Tick)
system.cpu.icache.demandMshrMissLatency::total     79246500                       # number of demand (read+write) MSHR miss ticks (Tick)
system.cpu.icache.overallMshrMissLatency::switch_cpus_1.inst     79246500                       # number of overall MSHR miss ticks (Tick)
system.cpu.icache.overallMshrMissLatency::total     79246500                       # number of overall MSHR miss ticks (Tick)
system.cpu.icache.demandMshrMissRate::switch_cpus_1.inst     0.001442                       # mshr miss ratio for demand accesses (Ratio)
system.cpu.icache.demandMshrMissRate::total     0.001442                       # mshr miss ratio for demand accesses (Ratio)
system.cpu.icache.overallMshrMissRate::switch_cpus_1.inst     0.001442                       # mshr miss ratio for overall accesses (Ratio)
system.cpu.icache.overallMshrMissRate::total     0.001442                       # mshr miss ratio for overall accesses (Ratio)
system.cpu.icache.demandAvgMshrMissLatency::switch_cpus_1.inst  7267.654072                       # average overall mshr miss latency ((Tick/Count))
system.cpu.icache.demandAvgMshrMissLatency::total  7267.654072                       # average overall mshr miss latency ((Tick/Count))
system.cpu.icache.overallAvgMshrMissLatency::switch_cpus_1.inst  7267.654072                       # average overall mshr miss latency ((Tick/Count))
system.cpu.icache.overallAvgMshrMissLatency::total  7267.654072                       # average overall mshr miss latency ((Tick/Count))
system.cpu.icache.replacements                  10904                       # number of replacements (Count)
system.cpu.icache.ReadReq.hits::switch_cpus_1.inst      7553207                       # number of ReadReq hits (Count)
system.cpu.icache.ReadReq.hits::total         7553207                       # number of ReadReq hits (Count)
system.cpu.icache.ReadReq.misses::switch_cpus_1.inst        10910                       # number of ReadReq misses (Count)
system.cpu.icache.ReadReq.misses::total         10910                       # number of ReadReq misses (Count)
system.cpu.icache.ReadReq.missLatency::switch_cpus_1.inst     95876500                       # number of ReadReq miss ticks (Tick)
system.cpu.icache.ReadReq.missLatency::total     95876500                       # number of ReadReq miss ticks (Tick)
system.cpu.icache.ReadReq.accesses::switch_cpus_1.inst      7564117                       # number of ReadReq accesses(hits+misses) (Count)
system.cpu.icache.ReadReq.accesses::total      7564117                       # number of ReadReq accesses(hits+misses) (Count)
system.cpu.icache.ReadReq.missRate::switch_cpus_1.inst     0.001442                       # miss rate for ReadReq accesses (Ratio)
system.cpu.icache.ReadReq.missRate::total     0.001442                       # miss rate for ReadReq accesses (Ratio)
system.cpu.icache.ReadReq.avgMissLatency::switch_cpus_1.inst  8787.946838                       # average ReadReq miss latency ((Tick/Count))
system.cpu.icache.ReadReq.avgMissLatency::total  8787.946838                       # average ReadReq miss latency ((Tick/Count))
system.cpu.icache.ReadReq.mshrHits::switch_cpus_1.inst            6                       # number of ReadReq MSHR hits (Count)
system.cpu.icache.ReadReq.mshrHits::total            6                       # number of ReadReq MSHR hits (Count)
system.cpu.icache.ReadReq.mshrMisses::switch_cpus_1.inst        10904                       # number of ReadReq MSHR misses (Count)
system.cpu.icache.ReadReq.mshrMisses::total        10904                       # number of ReadReq MSHR misses (Count)
system.cpu.icache.ReadReq.mshrMissLatency::switch_cpus_1.inst     79246500                       # number of ReadReq MSHR miss ticks (Tick)
system.cpu.icache.ReadReq.mshrMissLatency::total     79246500                       # number of ReadReq MSHR miss ticks (Tick)
system.cpu.icache.ReadReq.mshrMissRate::switch_cpus_1.inst     0.001442                       # mshr miss rate for ReadReq accesses (Ratio)
system.cpu.icache.ReadReq.mshrMissRate::total     0.001442                       # mshr miss rate for ReadReq accesses (Ratio)
system.cpu.icache.ReadReq.avgMshrMissLatency::switch_cpus_1.inst  7267.654072                       # average ReadReq mshr miss latency ((Tick/Count))
system.cpu.icache.ReadReq.avgMshrMissLatency::total  7267.654072                       # average ReadReq mshr miss latency ((Tick/Count))
system.cpu.icache.power_state.pwrStateResidencyTicks::UNDEFINED 168318183500                       # Cumulative time (in ticks) in various power states (Tick)
system.cpu.icache.tags.tagsInUse                  512                       # Average ticks per tags in use ((Tick/Count))
system.cpu.icache.tags.totalRefs             62051351                       # Total number of references to valid blocks. (Count)
system.cpu.icache.tags.sampledRefs              11416                       # Sample count of references to valid blocks. (Count)
system.cpu.icache.tags.avgRefs            5435.472232                       # Average number of references to valid blocks. ((Count/Count))
system.cpu.icache.tags.warmupTick                   0                       # The tick when the warmup percentage was hit. (Tick)
system.cpu.icache.tags.occupancies::cpu.inst           12                       # Average occupied blocks per tick, per requestor ((Count/Tick))
system.cpu.icache.tags.occupancies::switch_cpus.inst   449.123842                       # Average occupied blocks per tick, per requestor ((Count/Tick))
system.cpu.icache.tags.occupancies::switch_cpus_1.inst    50.876158                       # Average occupied blocks per tick, per requestor ((Count/Tick))
system.cpu.icache.tags.avgOccs::cpu.inst     0.023438                       # Average percentage of cache occupancy ((Ratio/Tick))
system.cpu.icache.tags.avgOccs::switch_cpus.inst     0.877195                       # Average percentage of cache occupancy ((Ratio/Tick))
system.cpu.icache.tags.avgOccs::switch_cpus_1.inst     0.099367                       # Average percentage of cache occupancy ((Ratio/Tick))
system.cpu.icache.tags.avgOccs::total               1                       # Average percentage of cache occupancy ((Ratio/Tick))
system.cpu.icache.tags.occupanciesTaskId::1024          512                       # Occupied blocks per task id (Count)
system.cpu.icache.tags.ageTaskId_1024::0            2                       # Occupied blocks per task id, per block age (Count)
system.cpu.icache.tags.ageTaskId_1024::2            1                       # Occupied blocks per task id, per block age (Count)
system.cpu.icache.tags.ageTaskId_1024::4          509                       # Occupied blocks per task id, per block age (Count)
system.cpu.icache.tags.ratioOccsTaskId::1024            1                       # Ratio of occupied blocks and all blocks, per task id (Ratio)
system.cpu.icache.tags.tagAccesses           15139138                       # Number of tag accesses (Count)
system.cpu.icache.tags.dataAccesses          15139138                       # Number of data accesses (Count)
system.cpu.icache.tags.power_state.pwrStateResidencyTicks::UNDEFINED 168318183500                       # Cumulative time (in ticks) in various power states (Tick)
system.cpu.interrupts.clk_domain.clock           8000                       # Clock period in ticks (Tick)
system.cpu.itb_walker_cache.blockedCycles::no_mshrs            0                       # number of cycles access was blocked (Cycle)
system.cpu.itb_walker_cache.blockedCycles::no_targets            0                       # number of cycles access was blocked (Cycle)
system.cpu.itb_walker_cache.blockedCauses::no_mshrs            0                       # number of times access was blocked (Count)
system.cpu.itb_walker_cache.blockedCauses::no_targets            0                       # number of times access was blocked (Count)
system.cpu.itb_walker_cache.avgBlocked::no_mshrs          nan                       # average number of cycles each access was blocked ((Cycle/Count))
system.cpu.itb_walker_cache.avgBlocked::no_targets          nan                       # average number of cycles each access was blocked ((Cycle/Count))
system.cpu.itb_walker_cache.replacements            0                       # number of replacements (Count)
system.cpu.itb_walker_cache.power_state.pwrStateResidencyTicks::UNDEFINED 168318183500                       # Cumulative time (in ticks) in various power states (Tick)
system.cpu.itb_walker_cache.tags.tagsInUse            0                       # Average ticks per tags in use ((Tick/Count))
system.cpu.itb_walker_cache.tags.totalRefs            0                       # Total number of references to valid blocks. (Count)
system.cpu.itb_walker_cache.tags.sampledRefs            0                       # Sample count of references to valid blocks. (Count)
system.cpu.itb_walker_cache.tags.avgRefs          nan                       # Average number of references to valid blocks. ((Count/Count))
system.cpu.itb_walker_cache.tags.warmupTick            0                       # The tick when the warmup percentage was hit. (Tick)
system.cpu.itb_walker_cache.tags.tagAccesses            0                       # Number of tag accesses (Count)
system.cpu.itb_walker_cache.tags.dataAccesses            0                       # Number of data accesses (Count)
system.cpu.itb_walker_cache.tags.power_state.pwrStateResidencyTicks::UNDEFINED 168318183500                       # Cumulative time (in ticks) in various power states (Tick)
system.cpu.mmu.dtb.rdAccesses                       0                       # TLB accesses on read requests (Count)
system.cpu.mmu.dtb.wrAccesses                       0                       # TLB accesses on write requests (Count)
system.cpu.mmu.dtb.rdMisses                         0                       # TLB misses on read requests (Count)
system.cpu.mmu.dtb.wrMisses                         0                       # TLB misses on write requests (Count)
system.cpu.mmu.dtb.walker.power_state.pwrStateResidencyTicks::UNDEFINED 168318183500                       # Cumulative time (in ticks) in various power states (Tick)
[...]
system.switch_cpus_1.fetchStats0.icacheStallCycles     15307553                       # ICache total stall cycles (Cycle)
system.switch_cpus_1.fetchStats0.numFetchSuspends            0                       # Number of times Execute suspended instruction fetching (Count)
system.switch_cpus_1.iew.idleCycles                 0                       # Number of cycles IEW is idle (Cycle)
system.switch_cpus_1.iew.squashCycles           71610                       # Number of cycles IEW is squashing (Cycle)
system.switch_cpus_1.iew.blockCycles              373                       # Number of cycles IEW is blocking (Cycle)
system.switch_cpus_1.iew.unblockCycles            369                       # Number of cycles IEW is unblocking (Cycle)
system.switch_cpus_1.iew.dispatchedInsts     91224761                       # Number of instructions dispatched to IQ (Count)
system.switch_cpus_1.iew.dispSquashedInsts        74416                       # Number of squashed instructions skipped by dispatch (Count)
system.switch_cpus_1.iew.dispLoadInsts       12473307                       # Number of dispatched load instructions (Count)
system.switch_cpus_1.iew.dispStoreInsts       8850363                       # Number of dispatched store instructions (Count)
system.switch_cpus_1.iew.dispNonSpecInsts            2                       # Number of dispatched non-speculative instructions (Count)
system.switch_cpus_1.iew.iqFullEvents               0                       # Number of times the IQ has become full, causing a stall (Count)
system.switch_cpus_1.iew.lsqFullEvents            369                       # Number of times the LSQ has become full, causing a stall (Count)
system.switch_cpus_1.iew.memOrderViolationEvents           29                       # Number of memory order violations (Count)
system.switch_cpus_1.iew.predictedTakenIncorrect        34001                       # Number of branches that were predicted taken incorrectly (Count)
system.switch_cpus_1.iew.predictedNotTakenIncorrect        37545                       # Number of branches that were predicted not taken incorrectly (Count)
system.switch_cpus_1.iew.branchMispredicts        71546                       # Number of branch mispredicts detected at execute (Count)
system.switch_cpus_1.iew.instsToCommit       91090458                       # Cumulative count of insts sent to commit (Count)
system.switch_cpus_1.iew.writebackCount      91090337                       # Cumulative count of insts written-back (Count)
system.switch_cpus_1.iew.producerInst        58083582                       # Number of instructions producing a value (Count)
system.switch_cpus_1.iew.consumerInst        78728190                       # Number of instructions consuming a value (Count)
system.switch_cpus_1.iew.wbRate              1.413104                       # Insts written-back per cycle ((Count/Cycle))
system.switch_cpus_1.iew.wbFanout            0.737774                       # Average fanout of values written-back ((Count/Count))
system.switch_cpus_1.lsq0.forwLoads            516566                       # Number of loads that had data forwarded from stores (Count)
system.switch_cpus_1.lsq0.squashedLoads         32938                       # Number of loads squashed (Count)
system.switch_cpus_1.lsq0.ignoredResponses            1                       # Number of memory responses ignored because the instruction is squashed (Count)
system.switch_cpus_1.lsq0.memOrderViolation           29                       # Number of memory ordering violations (Count)
system.switch_cpus_1.lsq0.squashedStores          500                       # Number of stores squashed (Count)
system.switch_cpus_1.lsq0.rescheduledLoads         2099                       # Number of loads that were rescheduled (Count)
system.switch_cpus_1.lsq0.blockedByCache            0                       # Number of times an access to memory failed due to the cache being blocked (Count)
system.switch_cpus_1.lsq0.loadToUse::samples     12440369                       # Distribution of cycle latency between the first time a load is issued and its completion (Unspecified)
system.switch_cpus_1.lsq0.loadToUse::mean     3.968981                       # Distribution of cycle latency between the first time a load is issued and its completion (Unspecified)
system.switch_cpus_1.lsq0.loadToUse::stdev     1.402345                       # Distribution of cycle latency between the first time a load is issued and its completion (Unspecified)
system.switch_cpus_1.lsq0.loadToUse::0-9     12437159     99.97%     99.97% # Distribution of cycle latency between the first time a load is issued and its completion (Unspecified)
system.switch_cpus_1.lsq0.loadToUse::10-19         1072      0.01%     99.98% # Distribution of cycle latency between the first time a load is issued and its completion (Unspecified)
system.switch_cpus_1.lsq0.loadToUse::20-29           59      0.00%     99.98% # Distribution of cycle latency between the first time a load is issued and its completion (Unspecified)
system.switch_cpus_1.lsq0.loadToUse::30-39            3      0.00%     99.98% # Distribution of cycle latency between the first time a load is issued and its completion (Unspecified)
system.switch_cpus_1.lsq0.loadToUse::40-49         1103      0.01%     99.99% # Distribution of cycle latency between the first time a load is issued and its completion (Unspecified)
system.switch_cpus_1.lsq0.loadToUse::50-59            4      0.00%     99.99% # Distribution of cycle latency between the first time a load is issued and its completion (Unspecified)
system.switch_cpus_1.lsq0.loadToUse::60-69            1      0.00%     99.99% # Distribution of cycle latency between the first time a load is issued and its completion (Unspecified)
system.switch_cpus_1.lsq0.loadToUse::70-79            2      0.00%     99.99% # Distribution of cycle latency between the first time a load is issued and its completion (Unspecified)
system.switch_cpus_1.lsq0.loadToUse::80-89            2      0.00%     99.99% # Distribution of cycle latency between the first time a load is issued and its completion (Unspecified)
system.switch_cpus_1.lsq0.loadToUse::90-99           76      0.00%     99.99% # Distribution of cycle latency between the first time a load is issued and its completion (Unspecified)
system.switch_cpus_1.lsq0.loadToUse::100-109            2      0.00%     99.99% # Distribution of cycle latency between the first time a load is issued and its completion (Unspecified)
system.switch_cpus_1.lsq0.loadToUse::120-129          825      0.01%    100.00% # Distribution of cycle latency between the first time a load is issued and its completion (Unspecified)
system.switch_cpus_1.lsq0.loadToUse::130-139            1      0.00%    100.00% # Distribution of cycle latency between the first time a load is issued and its completion (Unspecified)
system.switch_cpus_1.lsq0.loadToUse::140-149           12      0.00%    100.00% # Distribution of cycle latency between the first time a load is issued and its completion (Unspecified)
system.switch_cpus_1.lsq0.loadToUse::150-159            5      0.00%    100.00% # Distribution of cycle latency between the first time a load is issued and its completion (Unspecified)
system.switch_cpus_1.lsq0.loadToUse::160-169            6      0.00%    100.00% # Distribution of cycle latency between the first time a load is issued and its completion (Unspecified)
system.switch_cpus_1.lsq0.loadToUse::170-179            1      0.00%    100.00% # Distribution of cycle latency between the first time a load is issued and its completion (Unspecified)
system.switch_cpus_1.lsq0.loadToUse::180-189            3      0.00%    100.00% # Distribution of cycle latency between the first time a load is issued and its completion (Unspecified)
system.switch_cpus_1.lsq0.loadToUse::200-209            1      0.00%    100.00% # Distribution of cycle latency between the first time a load is issued and its completion (Unspecified)
system.switch_cpus_1.lsq0.loadToUse::210-219            1      0.00%    100.00% # Distribution of cycle latency between the first time a load is issued and its completion (Unspecified)
system.switch_cpus_1.lsq0.loadToUse::230-239            1      0.00%    100.00% # Distribution of cycle latency between the first time a load is issued and its completion (Unspecified)
system.switch_cpus_1.lsq0.loadToUse::240-249            1      0.00%    100.00% # Distribution of cycle latency between the first time a load is issued and its completion (Unspecified)
system.switch_cpus_1.lsq0.loadToUse::250-259            1      0.00%    100.00% # Distribution of cycle latency between the first time a load is issued and its completion (Unspecified)
system.switch_cpus_1.lsq0.loadToUse::270-279            1      0.00%    100.00% # Distribution of cycle latency between the first time a load is issued and its completion (Unspecified)
system.switch_cpus_1.lsq0.loadToUse::280-289            3      0.00%    100.00% # Distribution of cycle latency between the first time a load is issued and its completion (Unspecified)
system.switch_cpus_1.lsq0.loadToUse::overflows           24      0.00%    100.00% # Distribution of cycle latency between the first time a load is issued and its completion (Unspecified)
system.switch_cpus_1.lsq0.loadToUse::min_value            2                       # Distribution of cycle latency between the first time a load is issued and its completion (Unspecified)
system.switch_cpus_1.lsq0.loadToUse::max_value          638                       # Distribution of cycle latency between the first time a load is issued and its completion (Unspecified)
system.switch_cpus_1.lsq0.loadToUse::total     12440369                       # Distribution of cycle latency between the first time a load is issued and its completion (Unspecified)
system.switch_cpus_1.mmu.dtb.rdAccesses      12456350                       # TLB accesses on read requests (Count)
system.switch_cpus_1.mmu.dtb.wrAccesses       8850189                       # TLB accesses on write requests (Count)
system.switch_cpus_1.mmu.dtb.rdMisses              22                       # TLB misses on read requests (Count)
system.switch_cpus_1.mmu.dtb.wrMisses             102                       # TLB misses on write requests (Count)
system.switch_cpus_1.mmu.dtb.walker.power_state.pwrStateResidencyTicks::UNDEFINED 168318183500                       # Cumulative time (in ticks) in various power states (Tick)
system.switch_cpus_1.mmu.itb.rdAccesses             0                       # TLB accesses on read requests (Count)
system.switch_cpus_1.mmu.itb.wrAccesses       7564117                       # TLB accesses on write requests (Count)
system.switch_cpus_1.mmu.itb.rdMisses               0                       # TLB misses on read requests (Count)
system.switch_cpus_1.mmu.itb.wrMisses              37                       # TLB misses on write requests (Count)
system.switch_cpus_1.mmu.itb.walker.power_state.pwrStateResidencyTicks::UNDEFINED 168318183500                       # Cumulative time (in ticks) in various power states (Tick)
system.switch_cpus_1.power_state.pwrStateResidencyTicks::OFF 168318183500                       # Cumulative time (in ticks) in various power states (Tick)
system.switch_cpus_1.rename.squashCycles        71610                       # Number of cycles rename is squashing (Cycle)
system.switch_cpus_1.rename.idleCycles       16896611                       # Number of cycles rename is idle (Cycle)
system.switch_cpus_1.rename.blockCycles           931                       # Number of cycles rename is blocking (Cycle)
system.switch_cpus_1.rename.serializeStallCycles            0                       # count of cycles rename stalled for serializing inst (Cycle)
system.switch_cpus_1.rename.runCycles        47307141                       # Number of cycles rename is running (Cycle)
system.switch_cpus_1.rename.unblockCycles       183175                       # Number of cycles rename is unblocking (Cycle)
system.switch_cpus_1.rename.renamedInsts     91357787                       # Number of instructions processed by rename (Count)
system.switch_cpus_1.rename.ROBFullEvents           29                       # Number of times rename has blocked due to ROB full (Count)
system.switch_cpus_1.rename.SQFullEvents       182904                       # Number of times rename has blocked due to SQ full (Count)
system.switch_cpus_1.rename.renamedOperands    134536633                       # Number of destination operands rename has renamed (Count)
system.switch_cpus_1.rename.lookups         292778114                       # Number of register rename lookups that rename has made (Count)
system.switch_cpus_1.rename.intLookups      101613645                       # Number of integer rename lookups (Count)
system.switch_cpus_1.rename.fpLookups          829938                       # Number of floating rename lookups (Count)
system.switch_cpus_1.rename.committedMaps    133664094                       # Number of HB maps that are committed (Count)
system.switch_cpus_1.rename.undoneMaps         872519                       # Number of HB maps that are undone due to squashing (Count)
system.switch_cpus_1.rename.serializing             0                       # count of serializing insts renamed (Count)
system.switch_cpus_1.rename.tempSerializing            0                       # count of temporary serializing insts renamed (Count)
system.switch_cpus_1.rename.skidInsts           15483                       # count of insts added to the skid buffer (Count)
system.switch_cpus_1.rob.reads              116152637                       # The number of ROB reads (Count)
system.switch_cpus_1.rob.writes             182519547                       # The number of ROB writes (Count)
system.switch_cpus_1.thread_0.numInsts       50000000                       # Number of Instructions committed (Count)
system.switch_cpus_1.thread_0.numOps         90954567                       # Number of Ops committed (Count)
system.switch_cpus_1.thread_0.numMemRefs            0                       # Number of Memory References (Count)
system.tol2bus.transDist::ReadResp              11921                       # Transaction distribution (Count)
system.tol2bus.transDist::WritebackDirty         5218                       # Transaction distribution (Count)
system.tol2bus.transDist::WritebackClean        10904                       # Transaction distribution (Count)
system.tol2bus.transDist::CleanEvict              795                       # Transaction distribution (Count)
system.tol2bus.transDist::ReadExReq              2684                       # Transaction distribution (Count)
system.tol2bus.transDist::ReadExResp             2684                       # Transaction distribution (Count)
system.tol2bus.transDist::ReadCleanReq          10904                       # Transaction distribution (Count)
system.tol2bus.transDist::ReadSharedReq          1017                       # Transaction distribution (Count)
system.tol2bus.pktCount_system.cpu.icache.mem_side_port::system.l2.cpu_side_port        32712                       # Packet count per connected requestor and responder (Count)
system.tol2bus.pktCount_system.cpu.dcache.mem_side_port::system.l2.cpu_side_port        11103                       # Packet count per connected requestor and responder (Count)
system.tol2bus.pktCount::total                  43815                       # Packet count per connected requestor and responder (Count)
system.tol2bus.pktSize_system.cpu.icache.mem_side_port::system.l2.cpu_side_port      1395712                       # Cumulative packet size per connected requestor and responder (Byte)
system.tol2bus.pktSize_system.cpu.dcache.mem_side_port::system.l2.cpu_side_port       437632                       # Cumulative packet size per connected requestor and responder (Byte)
system.tol2bus.pktSize::total                 1833344                       # Cumulative packet size per connected requestor and responder (Byte)
system.tol2bus.snoops                            2312                       # Total snoops (Count)
system.tol2bus.snoopTraffic                    133184                       # Total snoop traffic (Byte)
system.tol2bus.snoopFanout::samples             16917                       # Request fanout histogram (Count)
system.tol2bus.snoopFanout::mean             0.008689                       # Request fanout histogram (Count)
system.tol2bus.snoopFanout::stdev            0.092814                       # Request fanout histogram (Count)
system.tol2bus.snoopFanout::underflows              0      0.00%      0.00% # Request fanout histogram (Count)
system.tol2bus.snoopFanout::0                   16770     99.13%     99.13% # Request fanout histogram (Count)
system.tol2bus.snoopFanout::1                     147      0.87%    100.00% # Request fanout histogram (Count)
system.tol2bus.snoopFanout::2                       0      0.00%    100.00% # Request fanout histogram (Count)
system.tol2bus.snoopFanout::3                       0      0.00%    100.00% # Request fanout histogram (Count)
system.tol2bus.snoopFanout::4                       0      0.00%    100.00% # Request fanout histogram (Count)
system.tol2bus.snoopFanout::overflows               0      0.00%    100.00% # Request fanout histogram (Count)
system.tol2bus.snoopFanout::min_value               0                       # Request fanout histogram (Count)
system.tol2bus.snoopFanout::max_value               1                       # Request fanout histogram (Count)
system.tol2bus.snoopFanout::total               16917                       # Request fanout histogram (Count)
system.tol2bus.power_state.pwrStateResidencyTicks::UNDEFINED 168318183500                       # Cumulative time (in ticks) in various power states (Tick)
system.tol2bus.reqLayer0.occupancy           28646000                       # Layer occupancy (ticks) (Tick)
system.tol2bus.reqLayer0.utilization              0.0                       # Layer utilization (Ratio)
system.tol2bus.respLayer0.occupancy          16356000                       # Layer occupancy (ticks) (Tick)
system.tol2bus.respLayer0.utilization             0.0                       # Layer utilization (Ratio)
system.tol2bus.respLayer1.occupancy           5551500                       # Layer occupancy (ticks) (Tick)
system.tol2bus.respLayer1.utilization             0.0                       # Layer utilization (Ratio)
system.tol2bus.snoop_filter.totRequests         29210                       # Total number of requests made to the snoop filter. (Count)
system.tol2bus.snoop_filter.hitSingleRequests        14605                       # Number of requests hitting in the snoop filter with a single holder of the requested data. (Count)
system.tol2bus.snoop_filter.hitMultiRequests            0                       # Number of requests hitting in the snoop filter with multiple (>1) holders of the requested data. (Count)
system.tol2bus.snoop_filter.totSnoops             147                       # Total number of snoops made to the snoop filter. (Count)
system.tol2bus.snoop_filter.hitSingleSnoops          147                       # Number of snoops hitting in the snoop filter with a single holder of the requested data. (Count)
system.tol2bus.snoop_filter.hitMultiSnoops            0                       # Number of snoops hitting in the snoop filter with multiple (>1) holders of the requested data. (Count)
system.voltage_domain.voltage                       1                       # Voltage in Volts (Volt)
system.workload.inst.arm                            0                       # number of arm instructions executed (Count)
system.workload.inst.quiesce                        0                       # number of quiesce instructions executed (Count)

---------- End Simulation Statistics   ----------
